
     RDKit          2D

 25 27  0  0  0  0  0  0  0  0999 V2000
    9.7500   -3.8971    0.0000 C   0  0  0  0  0  0  0  0  0  0  0  0
    8.2500   -3.8971    0.0000 C   0  0  0  0  0  0  0  0  0  0  0  0
    7.5000   -2.5981    0.0000 O   0  0  0  0  0  0  0  0  0  0  0  0
    6.0000   -2.5981    0.0000 C   0  0  0  0  0  0  0  0  0  0  0  0
    5.2500   -3.8971    0.0000 C   0  0  0  0  0  0  0  0  0  0  0  0
    3.7500   -3.8971    0.0000 C   0  0  0  0  0  0  0  0  0  0  0  0
    3.0000   -2.5981    0.0000 C   0  0  0  0  0  0  0  0  0  0  0  0
    1.5000   -2.5981    0.0000 C   0  0  0  0  0  0  0  0  0  0  0  0
    0.7500   -1.2990    0.0000 C   0  0  0  0  0  0  0  0  0  0  0  0
    1.5000    0.0000    0.0000 C   0  0  0  0  0  0  0  0  0  0  0  0
    0.7500    1.2990    0.0000 C   0  0  0  0  0  0  0  0  0  0  0  0
   -0.7500    1.2990    0.0000 C   0  0  0  0  0  0  0  0  0  0  0  0
   -1.5000    0.0000    0.0000 C   0  0  0  0  0  0  0  0  0  0  0  0
   -0.7500   -1.2990    0.0000 C   0  0  0  0  0  0  0  0  0  0  0  0
   -1.5000   -2.5981    0.0000 C   0  0  0  0  0  0  0  0  0  0  0  0
   -0.7500   -3.8971    0.0000 C   0  0  0  0  0  0  0  0  0  0  0  0
    0.7500   -3.8971    0.0000 N   0  0  0  0  0  0  0  0  0  0  0  0
    1.5000   -5.1962    0.0000 C   0  0  0  0  0  0  0  0  0  0  0  0
    0.7500   -6.4952    0.0000 C   0  0  0  0  0  0  0  0  0  0  0  0
    1.5000   -7.7942    0.0000 C   0  0  0  0  0  0  0  0  0  0  0  0
    3.0000   -7.7942    0.0000 O   0  0  0  0  0  0  0  0  0  0  0  0
    0.7500   -9.0933    0.0000 N   0  0  0  0  0  0  0  0  0  0  0  0
    1.5000  -10.3923    0.0000 O   0  0  0  0  0  0  0  0  0  0  0  0
    3.7500   -1.2990    0.0000 C   0  0  0  0  0  0  0  0  0  0  0  0
    5.2500   -1.2990    0.0000 C   0  0  0  0  0  0  0  0  0  0  0  0
  1  2  1  0
  2  3  1  0
  3  4  1  0
  4  5  2  0
  5  6  1  0
  6  7  2  0
  7  8  1  0
  8  9  1  0
  9 10  2  0
 10 11  1  0
 11 12  2  0
 12 13  1  0
 13 14  2  0
 14 15  1  0
 15 16  1  0
 16 17  1  0
 17 18  1  0
 18 19  1  0
 19 20  1  0
 20 21  2  0
 20 22  1  0
 22 23  1  0
  7 24  1  0
 24 25  2  0
 25  4  1  0
 17  8  1  0
 14  9  1  0
M  END
>  <molecule_chembl_id>  (1) 
CHEMBL4218825

>  <canonical_smiles>  (1) 
CCOc1ccc(C2c3ccccc3CCN2CCC(=O)NO)cc1

>  <pchembl_value_mean>  (1) 
4.0

>  <document_chembl_id>  (1) 
CHEMBL4190328

$$$$

     RDKit          2D

 21 22  0  0  0  0  0  0  0  0999 V2000
    3.0000   -5.1962    0.0000 O   0  0  0  0  0  0  0  0  0  0  0  0
    3.7500   -3.8971    0.0000 C   0  0  0  0  0  0  0  0  0  0  0  0
    3.0000   -2.5981    0.0000 N   0  0  0  0  0  0  0  0  0  0  0  0
    1.5000   -2.5981    0.0000 C   0  0  0  0  0  0  0  0  0  0  0  0
    0.7500   -3.8971    0.0000 C   0  0  0  0  0  0  0  0  0  0  0  0
   -0.7500   -3.8971    0.0000 O   0  0  0  0  0  0  0  0  0  0  0  0
    1.5000   -5.1962    0.0000 O   0  0  0  0  0  0  0  0  0  0  0  0
    0.7500   -1.2990    0.0000 C   0  0  0  0  0  0  0  0  0  0  0  0
    1.5000    0.0000    0.0000 C   0  0  0  0  0  0  0  0  0  0  0  0
    0.7500    1.2990    0.0000 C   0  0  0  0  0  0  0  0  0  0  0  0
   -0.7500    1.2990    0.0000 C   0  0  0  0  0  0  0  0  0  0  0  0
   -1.5000    0.0000    0.0000 C   0  0  0  0  0  0  0  0  0  0  0  0
   -0.7500   -1.2990    0.0000 C   0  0  0  0  0  0  0  0  0  0  0  0
    5.2500   -3.8971    0.0000 C   0  0  0  0  0  0  0  0  0  0  0  0
    6.0000   -5.1962    0.0000 C   0  0  0  0  0  0  0  0  0  0  0  0
    7.5000   -5.1962    0.0000 C   0  0  0  0  0  0  0  0  0  0  0  0
    8.2500   -3.8971    0.0000 C   0  0  0  0  0  0  0  0  0  0  0  0
    7.5000   -2.5981    0.0000 C   0  0  0  0  0  0  0  0  0  0  0  0
    8.2500   -1.2990    0.0000 S   0  0  0  0  0  0  0  0  0  0  0  0
    6.0000   -2.5981    0.0000 N   0  0  0  0  0  0  0  0  0  0  0  0
    5.2500   -1.2990    0.0000 O   0  0  0  0  0  0  0  0  0  0  0  0
  1  2  2  0
  2  3  1  0
  3  4  1  0
  4  5  1  0
  5  6  2  0
  5  7  1  0
  4  8  1  0
  8  9  2  0
  9 10  1  0
 10 11  2  0
 11 12  1  0
 12 13  2  0
  2 14  1  0
 14 15  2  0
 15 16  1  0
 16 17  2  0
 17 18  1  0
 18 19  2  0
 18 20  1  0
 20 21  1  0
 13  8  1  0
 20 14  1  0
M  END
>  <molecule_chembl_id>  (2) 
CHEMBL3260858

>  <canonical_smiles>  (2) 
O=C(NC(C(=O)O)c1ccccc1)c1cccc(=S)n1O

>  <pchembl_value_mean>  (2) 
4.02

>  <document_chembl_id>  (2) 
CHEMBL3616411

$$$$

     RDKit          2D

 32 33  0  0  0  0  0  0  0  0999 V2000
    0.7500  -16.8875    0.0000 C   0  0  0  0  0  0  0  0  0  0  0  0
    1.5000  -15.5885    0.0000 N   0  0  0  0  0  0  0  0  0  0  0  0
    0.7500  -14.2894    0.0000 C   0  0  0  0  0  0  0  0  0  0  0  0
   -0.7500  -14.2894    0.0000 O   0  0  0  0  0  0  0  0  0  0  0  0
    1.5000  -12.9904    0.0000 C   0  0  0  0  0  0  0  0  0  0  0  0
    0.7500  -11.6913    0.0000 C   0  0  0  0  0  0  0  0  0  0  0  0
    1.5000  -10.3923    0.0000 C   0  0  0  0  0  0  0  0  0  0  0  0
    0.7500   -9.0933    0.0000 C   0  0  0  0  0  0  0  0  0  0  0  0
    1.5000   -7.7942    0.0000 C   0  0  0  0  0  0  0  0  0  0  0  0
    0.7500   -6.4952    0.0000 C   0  0  0  0  0  0  0  0  0  0  0  0
    1.5000   -5.1962    0.0000 C   0  0  0  0  0  0  0  0  0  0  0  0
    0.7500   -3.8971    0.0000 N   0  0  0  0  0  0  0  0  0  0  0  0
    1.5000   -2.5981    0.0000 C   0  0  0  0  0  0  0  0  0  0  0  0
    0.7500   -1.2990    0.0000 C   0  0  0  0  0  0  0  0  0  0  0  0
    1.5000    0.0000    0.0000 C   0  0  0  0  0  0  0  0  0  0  0  0
    0.7500    1.2990    0.0000 C   0  0  0  0  0  0  0  0  0  0  0  0
   -0.7500    1.2990    0.0000 C   0  0  0  0  0  0  0  0  0  0  0  0
   -1.5000    2.5981    0.0000 O   0  0  0  0  0  0  0  0  0  0  0  0
   -0.7500    3.8971    0.0000 C   0  0  0  0  0  0  0  0  0  0  0  0
   -1.5000    0.0000    0.0000 C   0  0  0  0  0  0  0  0  0  0  0  0
   -0.7500   -1.2990    0.0000 C   0  0  0  0  0  0  0  0  0  0  0  0
    3.0000   -5.1962    0.0000 C   0  0  0  0  0  0  0  0  0  0  0  0
    3.7500   -3.8971    0.0000 O   0  0  0  0  0  0  0  0  0  0  0  0
    3.7500   -6.4952    0.0000 N   0  0  0  0  0  0  0  0  0  0  0  0
    5.2500   -6.4952    0.0000 C   0  0  0  0  0  0  0  0  0  0  0  0
    6.0000   -7.7942    0.0000 C   0  0  0  0  0  0  0  0  0  0  0  0
    7.5000   -7.7942    0.0000 C   0  0  0  0  0  0  0  0  0  0  0  0
    8.2500   -6.4952    0.0000 C   0  0  0  0  0  0  0  0  0  0  0  0
    7.5000   -5.1962    0.0000 C   0  0  0  0  0  0  0  0  0  0  0  0
    6.0000   -5.1962    0.0000 C   0  0  0  0  0  0  0  0  0  0  0  0
    3.0000  -12.9904    0.0000 N   0  0  0  0  0  0  0  0  0  0  0  0
    3.7500  -14.2894    0.0000 O   0  0  0  0  0  0  0  0  0  0  0  0
  1  2  1  0
  2  3  1  0
  3  4  2  0
  3  5  1  0
  5  6  1  0
  6  7  1  0
  7  8  1  0
  8  9  1  0
  9 10  1  0
 10 11  1  0
 11 12  1  0
 12 13  1  0
 13 14  1  0
 14 15  2  0
 15 16  1  0
 16 17  2  0
 17 18  1  0
 18 19  1  0
 17 20  1  0
 20 21  2  0
 11 22  1  0
 22 23  2  0
 22 24  1  0
 24 25  1  0
 25 26  2  0
 26 27  1  0
 27 28  2  0
 28 29  1  0
 29 30  2  0
  5 31  2  3
 31 32  1  0
 21 14  1  0
 30 25  1  0
M  END
>  <molecule_chembl_id>  (3) 
CHEMBL1767046

>  <canonical_smiles>  (3) 
CNC(=O)C(CCCCCC(NCc1ccc(OC)cc1)C(=O)Nc1ccccc1)=NO

>  <pchembl_value_mean>  (3) 
4.02

>  <document_chembl_id>  (3) 
CHEMBL1765034

$$$$

     RDKit          2D

 31 33  0  0  0  0  0  0  0  0999 V2000
   -5.5085    0.2283    0.0000 C   0  0  0  0  0  0  0  0  0  0  0  0
   -4.0819    0.6918    0.0000 C   0  0  0  0  0  0  0  0  0  0  0  0
   -3.7701    2.1590    0.0000 C   0  0  0  0  0  0  0  0  0  0  0  0
   -4.8848    3.1627    0.0000 C   0  0  0  0  0  0  0  0  0  0  0  0
   -4.5729    4.6300    0.0000 C   0  0  0  0  0  0  0  0  0  0  0  0
   -5.6876    5.6337    0.0000 C   0  0  0  0  0  0  0  0  0  0  0  0
   -5.3758    7.1009    0.0000 N   0  0  0  0  0  0  0  0  0  0  0  0
   -6.4905    8.1046    0.0000 C   0  0  0  0  0  0  0  0  0  0  0  0
   -7.9171    7.6411    0.0000 O   0  0  0  0  0  0  0  0  0  0  0  0
   -6.1786    9.5718    0.0000 C   0  0  0  0  0  0  0  0  0  0  0  0
   -7.2933   10.5755    0.0000 S   0  0  0  0  0  0  0  0  0  0  0  0
   -2.9672   -0.3119    0.0000 C   0  0  0  0  0  0  0  0  0  0  0  0
   -3.1240   -1.8037    0.0000 C   0  0  0  0  0  0  0  0  0  0  0  0
   -1.7537   -2.4138    0.0000 C   0  0  0  0  0  0  0  0  0  0  0  0
   -0.7500   -1.2990    0.0000 C   0  0  0  0  0  0  0  0  0  0  0  0
    0.7500   -1.2990    0.0000 C   0  0  0  0  0  0  0  0  0  0  0  0
    1.5000   -2.5981    0.0000 C   0  0  0  0  0  0  0  0  0  0  0  0
    3.0000   -2.5981    0.0000 C   0  0  0  0  0  0  0  0  0  0  0  0
    3.7500   -3.8971    0.0000 C   0  0  0  0  0  0  0  0  0  0  0  0
    3.0000   -5.1962    0.0000 C   0  0  0  0  0  0  0  0  0  0  0  0
    3.7500   -6.4952    0.0000 C   0  0  0  0  0  0  0  0  0  0  0  0
    3.0000   -7.7942    0.0000 O   0  0  0  0  0  0  0  0  0  0  0  0
    5.2500   -6.4952    0.0000 C   0  0  0  0  0  0  0  0  0  0  0  0
    6.0000   -5.1962    0.0000 C   0  0  0  0  0  0  0  0  0  0  0  0
    7.5000   -5.1962    0.0000 O   0  0  0  0  0  0  0  0  0  0  0  0
    5.2500   -3.8971    0.0000 C   0  0  0  0  0  0  0  0  0  0  0  0
    1.5000    0.0000    0.0000 C   0  0  0  0  0  0  0  0  0  0  0  0
    0.7500    1.2990    0.0000 C   0  0  0  0  0  0  0  0  0  0  0  0
   -0.7500    1.2990    0.0000 C   0  0  0  0  0  0  0  0  0  0  0  0
   -1.5000    0.0000    0.0000 C   0  0  0  0  0  0  0  0  0  0  0  0
   -2.3817    1.2135    0.0000 C   0  0  0  0  0  0  0  0  0  0  0  0
  1  2  1  0
  2  3  1  0
  3  4  1  0
  4  5  1  0
  5  6  1  0
  6  7  1  0
  7  8  1  0
  8  9  2  0
  8 10  1  0
 10 11  1  0
  2 12  1  0
 12 13  1  0
 13 14  1  0
 14 15  1  0
 15 16  1  0
 16 17  2  3
 17 18  1  0
 18 19  2  3
 19 20  1  0
 20 21  1  0
 21 22  1  0
 21 23  1  0
 23 24  1  0
 24 25  1  0
 24 26  1  0
 16 27  1  0
 27 28  1  0
 28 29  1  0
 29 30  1  0
 30 31  1  0
 30 12  1  0
 30 15  1  0
 26 19  1  0
M  END
>  <molecule_chembl_id>  (4) 
CHEMBL1164212

>  <canonical_smiles>  (4) 
CC(CCCCNC(=O)CS)C1CCC2C(=CC=C3CC(O)CC(O)C3)CCCC21C

>  <pchembl_value_mean>  (4) 
4.02

>  <document_chembl_id>  (4) 
CHEMBL1165922

$$$$

     RDKit          2D

 40 42  0  0  0  0  0  0  0  0999 V2000
    4.7302   -3.7586    0.0000 C   0  0  0  0  0  0  0  0  0  0  0  0
    3.3037   -4.2221    0.0000 C   0  0  0  0  0  0  0  0  0  0  0  0
    3.9138   -5.5924    0.0000 C   0  0  0  0  0  0  0  0  0  0  0  0
    2.9918   -2.7549    0.0000 C   0  0  0  0  0  0  0  0  0  0  0  0
    3.9955   -1.6402    0.0000 O   0  0  0  0  0  0  0  0  0  0  0  0
    1.5000   -2.5981    0.0000 N   0  0  0  0  0  0  0  0  0  0  0  0
    0.7500   -1.2990    0.0000 C   0  0  0  0  0  0  0  0  0  0  0  0
    1.5000    0.0000    0.0000 C   0  0  0  0  0  0  0  0  0  0  0  0
    0.7500    1.2990    0.0000 C   0  0  0  0  0  0  0  0  0  0  0  0
   -0.7500    1.2990    0.0000 C   0  0  0  0  0  0  0  0  0  0  0  0
   -1.5000    2.5981    0.0000 C   0  0  0  0  0  0  0  0  0  0  0  0
   -2.2500    3.8971    0.0000 N   0  0  0  0  0  0  0  0  0  0  0  0
   -1.5000    0.0000    0.0000 C   0  0  0  0  0  0  0  0  0  0  0  0
   -3.0000    0.0000    0.0000 C   0  0  0  0  0  0  0  0  0  0  0  0
   -4.5000    0.0000    0.0000 F   0  0  0  0  0  0  0  0  0  0  0  0
   -3.0000   -1.5000    0.0000 F   0  0  0  0  0  0  0  0  0  0  0  0
   -3.0000    1.5000    0.0000 F   0  0  0  0  0  0  0  0  0  0  0  0
   -0.7500   -1.2990    0.0000 C   0  0  0  0  0  0  0  0  0  0  0  0
    0.8899   -3.9684    0.0000 C   0  0  0  0  0  0  0  0  0  0  0  0
   -0.5773   -4.2803    0.0000 S   0  0  0  0  0  0  0  0  0  0  0  0
    2.0046   -4.9721    0.0000 N   0  0  0  0  0  0  0  0  0  0  0  0
    1.8478   -6.4639    0.0000 C   0  0  0  0  0  0  0  0  0  0  0  0
    0.4775   -7.0740    0.0000 C   0  0  0  0  0  0  0  0  0  0  0  0
    0.3207   -8.5658    0.0000 C   0  0  0  0  0  0  0  0  0  0  0  0
    1.5342   -9.4474    0.0000 C   0  0  0  0  0  0  0  0  0  0  0  0
    1.3774  -10.9392    0.0000 C   0  0  0  0  0  0  0  0  0  0  0  0
    2.5910  -11.8209    0.0000 O   0  0  0  0  0  0  0  0  0  0  0  0
    0.0071  -11.5493    0.0000 N   0  0  0  0  0  0  0  0  0  0  0  0
   -0.1497  -13.0411    0.0000 C   0  0  0  0  0  0  0  0  0  0  0  0
   -1.5200  -13.6512    0.0000 C   0  0  0  0  0  0  0  0  0  0  0  0
   -1.6768  -15.1430    0.0000 O   0  0  0  0  0  0  0  0  0  0  0  0
   -3.0471  -15.7531    0.0000 C   0  0  0  0  0  0  0  0  0  0  0  0
   -3.2039  -17.2449    0.0000 C   0  0  0  0  0  0  0  0  0  0  0  0
   -4.5742  -17.8550    0.0000 C   0  0  0  0  0  0  0  0  0  0  0  0
   -5.7877  -16.9733    0.0000 O   0  0  0  0  0  0  0  0  0  0  0  0
   -4.7310  -19.3468    0.0000 N   0  0  0  0  0  0  0  0  0  0  0  0
   -6.1013  -19.9569    0.0000 O   0  0  0  0  0  0  0  0  0  0  0  0
    2.9046   -8.8373    0.0000 C   0  0  0  0  0  0  0  0  0  0  0  0
    4.1181   -9.7190    0.0000 F   0  0  0  0  0  0  0  0  0  0  0  0
    3.0613   -7.3456    0.0000 C   0  0  0  0  0  0  0  0  0  0  0  0
  1  2  1  0
  2  3  1  0
  2  4  1  0
  4  5  2  0
  4  6  1  0
  6  7  1  0
  7  8  2  0
  8  9  1  0
  9 10  2  0
 10 11  1  0
 11 12  3  0
 10 13  1  0
 13 14  1  0
 14 15  1  0
 14 16  1  0
 14 17  1  0
 13 18  2  0
  6 19  1  0
 19 20  2  0
 19 21  1  0
 21 22  1  0
 22 23  2  0
 23 24  1  0
 24 25  2  0
 25 26  1  0
 26 27  2  0
 26 28  1  0
 28 29  1  0
 29 30  1  0
 30 31  1  0
 31 32  1  0
 32 33  1  0
 33 34  1  0
 34 35  2  0
 34 36  1  0
 36 37  1  0
 25 38  1  0
 38 39  1  0
 38 40  2  0
 21  2  1  0
 40 22  1  0
 18  7  1  0
M  END
>  <molecule_chembl_id>  (5) 
CHEMBL3966165

>  <canonical_smiles>  (5) 
CC1(C)C(=O)N(c2ccc(C#N)c(C(F)(F)F)c2)C(=S)N1c1ccc(C(=O)NCCOCCC(=O)NO)c(F)c1

>  <pchembl_value_mean>  (5) 
4.06

>  <document_chembl_id>  (5) 
CHEMBL3862016

$$$$

     RDKit          2D

 27 28  0  0  0  0  0  0  0  0999 V2000
    9.0000   -5.1962    0.0000 N   0  0  0  0  0  2  0  0  0  0  0  0
    8.2500   -3.8971    0.0000 N   0  0  0  0  0  4  0  0  0  0  0  0
    7.5000   -2.5981    0.0000 N   0  0  0  0  0  0  0  0  0  0  0  0
    6.0000   -2.5981    0.0000 C   0  0  0  0  0  0  0  0  0  0  0  0
    5.2500   -1.2990    0.0000 C   0  0  0  0  0  0  0  0  0  0  0  0
    3.7500   -1.2990    0.0000 C   0  0  0  0  0  0  0  0  0  0  0  0
    3.0000   -2.5981    0.0000 O   0  0  0  0  0  0  0  0  0  0  0  0
    3.0000    0.0000    0.0000 N   0  0  0  0  0  0  0  0  0  0  0  0
    1.5000    0.0000    0.0000 C   0  0  0  0  0  0  0  0  0  0  0  0
    0.7500   -1.2990    0.0000 C   0  0  0  0  0  0  0  0  0  0  0  0
   -0.7500   -1.2990    0.0000 C   0  0  0  0  0  0  0  0  0  0  0  0
   -1.5000    0.0000    0.0000 C   0  0  0  0  0  0  0  0  0  0  0  0
   -3.0000    0.0000    0.0000 C   0  0  0  0  0  0  0  0  0  0  0  0
   -3.7500   -1.2990    0.0000 O   0  0  0  0  0  0  0  0  0  0  0  0
   -3.7500    1.2990    0.0000 N   0  0  0  0  0  0  0  0  0  0  0  0
   -5.2500    1.2990    0.0000 C   0  0  0  0  0  0  0  0  0  0  0  0
   -6.0000    2.5981    0.0000 C   0  0  0  0  0  0  0  0  0  0  0  0
   -7.5000    2.5981    0.0000 C   0  0  0  0  0  0  0  0  0  0  0  0
   -8.2500    3.8971    0.0000 N   0  0  0  0  0  0  0  0  0  0  0  0
   -7.5000    5.1962    0.0000 N   0  0  0  0  0  4  0  0  0  0  0  0
   -6.7500    6.4952    0.0000 N   0  0  0  0  0  2  0  0  0  0  0  0
   -8.2500    1.2990    0.0000 C   0  0  0  0  0  0  0  0  0  0  0  0
   -7.5000    0.0000    0.0000 C   0  0  0  0  0  0  0  0  0  0  0  0
   -6.0000    0.0000    0.0000 C   0  0  0  0  0  0  0  0  0  0  0  0
   -5.2500   -1.2990    0.0000 N   0  0  0  0  0  0  0  0  0  0  0  0
   -0.7500    1.2990    0.0000 C   0  0  0  0  0  0  0  0  0  0  0  0
    0.7500    1.2990    0.0000 C   0  0  0  0  0  0  0  0  0  0  0  0
  1  2  2  0
  2  3  2  0
  3  4  1  0
  4  5  1  0
  5  6  1  0
  6  7  2  0
  6  8  1  0
  8  9  1  0
  9 10  2  0
 10 11  1  0
 11 12  2  0
 12 13  1  0
 13 14  2  0
 13 15  1  0
 15 16  1  0
 16 17  2  0
 17 18  1  0
 18 19  1  0
 19 20  2  0
 20 21  2  0
 18 22  2  0
 22 23  1  0
 23 24  2  0
 24 25  1  0
 12 26  1  0
 26 27  2  0
 27  9  1  0
 24 16  1  0
M  CHG  4   1  -1   2   1  20   1  21  -1
M  END
>  <molecule_chembl_id>  (6) 
CHEMBL2057829

>  <canonical_smiles>  (6) 
[N-]=[N+]=NCCC(=O)Nc1ccc(C(=O)Nc2cc(N=[N+]=[N-])ccc2N)cc1

>  <pchembl_value_mean>  (6) 
4.07

>  <document_chembl_id>  (6) 
CHEMBL2057127

$$$$

     RDKit          2D

 42 44  0  0  0  0  0  0  0  0999 V2000
    3.7500   -1.2990    0.0000 C   0  0  0  0  0  0  0  0  0  0  0  0
    3.0000    0.0000    0.0000 O   0  0  0  0  0  0  0  0  0  0  0  0
    1.5000    0.0000    0.0000 C   0  0  0  0  0  0  0  0  0  0  0  0
    0.7500   -1.2990    0.0000 C   0  0  0  0  0  0  0  0  0  0  0  0
   -0.7500   -1.2990    0.0000 C   0  0  0  0  0  0  0  0  0  0  0  0
   -1.5000   -2.5981    0.0000 C   0  0  0  0  0  0  0  0  0  0  0  0
   -3.0000   -2.5981    0.0000 O   0  0  0  0  0  0  0  0  0  0  0  0
   -3.7500   -3.8971    0.0000 C   0  0  0  0  0  0  0  0  0  0  0  0
   -5.2500   -3.8971    0.0000 C   0  0  0  0  0  0  0  0  0  0  0  0
   -6.0000   -5.1962    0.0000 C   0  0  0  0  0  0  0  0  0  0  0  0
   -5.2500   -6.4952    0.0000 C   0  0  0  0  0  0  0  0  0  0  0  0
   -6.0000   -7.7942    0.0000 N   0  0  0  0  0  0  0  0  0  0  0  0
   -7.5000   -7.7942    0.0000 C   0  0  0  0  0  0  0  0  0  0  0  0
   -8.2500   -6.4952    0.0000 O   0  0  0  0  0  0  0  0  0  0  0  0
   -8.2500   -9.0933    0.0000 C   0  0  0  0  0  0  0  0  0  0  0  0
   -9.7500   -9.0933    0.0000 C   0  0  0  0  0  0  0  0  0  0  0  0
  -10.5000  -10.3923    0.0000 C   0  0  0  0  0  0  0  0  0  0  0  0
  -12.0000  -10.3923    0.0000 C   0  0  0  0  0  0  0  0  0  0  0  0
  -12.7500  -11.6913    0.0000 C   0  0  0  0  0  0  0  0  0  0  0  0
  -14.2500  -11.6913    0.0000 C   0  0  0  0  0  0  0  0  0  0  0  0
  -15.0000  -12.9904    0.0000 C   0  0  0  0  0  0  0  0  0  0  0  0
  -14.2500  -14.2894    0.0000 O   0  0  0  0  0  0  0  0  0  0  0  0
  -16.5000  -12.9904    0.0000 O   0  0  0  0  0  0  0  0  0  0  0  0
  -17.2500  -14.2894    0.0000 C   0  0  0  0  0  0  0  0  0  0  0  0
  -18.7500  -14.2894    0.0000 C   0  0  0  0  0  0  0  0  0  0  0  0
  -19.5000  -12.9904    0.0000 C   0  0  0  0  0  0  0  0  0  0  0  0
  -21.0000  -12.9904    0.0000 C   0  0  0  0  0  0  0  0  0  0  0  0
  -21.7500  -14.2894    0.0000 C   0  0  0  0  0  0  0  0  0  0  0  0
  -23.2500  -14.2894    0.0000 C   0  0  0  0  0  0  0  0  0  0  0  0
  -24.0000  -12.9904    0.0000 N   0  0  0  0  0  0  0  0  0  0  0  0
  -25.5000  -12.9904    0.0000 N   0  0  0  0  0  4  0  0  0  0  0  0
  -27.0000  -12.9904    0.0000 N   0  0  0  0  0  2  0  0  0  0  0  0
  -21.0000  -15.5885    0.0000 C   0  0  0  0  0  0  0  0  0  0  0  0
  -19.5000  -15.5885    0.0000 C   0  0  0  0  0  0  0  0  0  0  0  0
   -3.7500   -6.4952    0.0000 C   0  0  0  0  0  0  0  0  0  0  0  0
   -3.0000   -5.1962    0.0000 C   0  0  0  0  0  0  0  0  0  0  0  0
   -1.5000    0.0000    0.0000 C   0  0  0  0  0  0  0  0  0  0  0  0
   -0.7500    1.2990    0.0000 C   0  0  0  0  0  0  0  0  0  0  0  0
   -1.5000    2.5981    0.0000 N   0  0  0  0  0  0  0  0  0  0  0  0
   -0.7500    3.8971    0.0000 N   0  0  0  0  0  4  0  0  0  0  0  0
   -0.0000    5.1962    0.0000 N   0  0  0  0  0  2  0  0  0  0  0  0
    0.7500    1.2990    0.0000 C   0  0  0  0  0  0  0  0  0  0  0  0
  1  2  1  0
  2  3  1  0
  3  4  2  0
  4  5  1  0
  5  6  1  0
  6  7  1  0
  7  8  1  0
  8  9  2  0
  9 10  1  0
 10 11  2  0
 11 12  1  0
 12 13  1  0
 13 14  2  0
 13 15  1  0
 15 16  1  0
 16 17  1  0
 17 18  1  0
 18 19  1  0
 19 20  1  0
 20 21  1  0
 21 22  2  0
 21 23  1  0
 23 24  1  0
 24 25  1  0
 25 26  2  0
 26 27  1  0
 27 28  2  0
 28 29  1  0
 29 30  1  0
 30 31  2  0
 31 32  2  0
 28 33  1  0
 33 34  2  0
 11 35  1  0
 35 36  2  0
  5 37  2  0
 37 38  1  0
 38 39  1  0
 39 40  2  0
 40 41  2  0
 38 42  2  0
 42  3  1  0
 36  8  1  0
 34 25  1  0
M  CHG  4  31   1  32  -1  40   1  41  -1
M  END
>  <molecule_chembl_id>  (7) 
CHEMBL2170174

>  <canonical_smiles>  (7) 
COc1cc(COc2ccc(NC(=O)CCCCCCC(=O)OCc3ccc(CN=[N+]=[N-])cc3)cc2)cc(N=[N+]=[N-])c1

>  <pchembl_value_mean>  (7) 
4.1

>  <document_chembl_id>  (7) 
CHEMBL2169804

$$$$

     RDKit          2D

 23 25  0  0  0  0  0  0  0  0999 V2000
    3.7500    1.2990    0.0000 O   0  0  0  0  0  0  0  0  0  0  0  0
    3.0000    0.0000    0.0000 C   0  0  0  0  0  0  0  0  0  0  0  0
    3.7500   -1.2990    0.0000 N   0  0  0  0  0  0  0  0  0  0  0  0
    5.2500   -1.2990    0.0000 O   0  0  0  0  0  0  0  0  0  0  0  0
    1.5000    0.0000    0.0000 C   0  0  0  0  0  0  0  0  0  0  0  0
    0.7500   -1.2990    0.0000 C   0  0  0  0  0  0  0  0  0  0  0  0
   -0.7500   -1.2990    0.0000 C   0  0  0  0  0  0  0  0  0  0  0  0
   -1.5000    0.0000    0.0000 C   0  0  0  0  0  0  0  0  0  0  0  0
   -0.7500    1.2990    0.0000 C   0  0  0  0  0  0  0  0  0  0  0  0
   -1.5000    2.5981    0.0000 C   0  0  0  0  0  0  0  0  0  0  0  0
   -2.9918    2.7549    0.0000 C   0  0  0  0  0  0  0  0  0  0  0  0
   -3.3037    4.2221    0.0000 N   0  0  0  0  0  0  0  0  0  0  0  0
   -4.6740    4.8322    0.0000 C   0  0  0  0  0  0  0  0  0  0  0  0
   -4.8308    6.3240    0.0000 C   0  0  0  0  0  0  0  0  0  0  0  0
   -6.2011    6.9341    0.0000 C   0  0  0  0  0  0  0  0  0  0  0  0
   -6.3579    8.4259    0.0000 C   0  0  0  0  0  0  0  0  0  0  0  0
   -7.7282    9.0360    0.0000 C   0  0  0  0  0  0  0  0  0  0  0  0
   -8.9417    8.1543    0.0000 C   0  0  0  0  0  0  0  0  0  0  0  0
   -8.7849    6.6625    0.0000 C   0  0  0  0  0  0  0  0  0  0  0  0
   -7.4146    6.0524    0.0000 C   0  0  0  0  0  0  0  0  0  0  0  0
   -2.0046    4.9721    0.0000 N   0  0  0  0  0  0  0  0  0  0  0  0
   -0.8899    3.9684    0.0000 N   0  0  0  0  0  0  0  0  0  0  0  0
    0.7500    1.2990    0.0000 C   0  0  0  0  0  0  0  0  0  0  0  0
  1  2  2  0
  2  3  1  0
  3  4  1  0
  2  5  1  0
  5  6  2  0
  6  7  1  0
  7  8  2  0
  8  9  1  0
  9 10  1  0
 10 11  2  0
 11 12  1  0
 12 13  1  0
 13 14  1  0
 14 15  1  0
 15 16  2  0
 16 17  1  0
 17 18  2  0
 18 19  1  0
 19 20  2  0
 12 21  1  0
 21 22  2  0
  9 23  2  0
 23  5  1  0
 22 10  1  0
 20 15  1  0
M  END
>  <molecule_chembl_id>  (8) 
CHEMBL2178344

>  <canonical_smiles>  (8) 
O=C(NO)c1cccc(-c2cn(CCc3ccccc3)nn2)c1

>  <pchembl_value_mean>  (8) 
4.12

>  <document_chembl_id>  (8) 
CHEMBL2176939

$$$$

     RDKit          2D

 34 37  0  0  0  0  0  0  0  0999 V2000
    0.8832  -11.6056    0.0000 O   0  0  0  0  0  0  0  0  0  0  0  0
   -0.5434  -12.0691    0.0000 C   0  0  0  0  0  0  0  0  0  0  0  0
   -0.8553  -13.5363    0.0000 N   0  0  0  0  0  0  0  0  0  0  0  0
    0.2594  -14.5400    0.0000 O   0  0  0  0  0  0  0  0  0  0  0  0
   -1.6581  -11.0654    0.0000 C   0  0  0  0  0  0  0  0  0  0  0  0
   -3.0847  -11.5290    0.0000 C   0  0  0  0  0  0  0  0  0  0  0  0
   -4.1994  -10.5253    0.0000 C   0  0  0  0  0  0  0  0  0  0  0  0
   -3.8876   -9.0580    0.0000 C   0  0  0  0  0  0  0  0  0  0  0  0
   -2.4610   -8.5945    0.0000 C   0  0  0  0  0  0  0  0  0  0  0  0
   -2.1491   -7.1273    0.0000 S   0  0  0  0  0  0  0  0  0  0  0  0
   -3.6163   -6.8154    0.0000 O   0  0  0  0  0  0  0  0  0  0  0  0
   -0.6819   -7.4392    0.0000 O   0  0  0  0  0  0  0  0  0  0  0  0
   -1.8373   -5.6601    0.0000 N   0  0  0  0  0  0  0  0  0  0  0  0
   -2.9520   -4.6564    0.0000 C   0  0  0  0  0  0  0  0  0  0  0  0
   -2.6401   -3.1891    0.0000 C   0  0  0  0  0  0  0  0  0  0  0  0
   -1.2135   -2.7256    0.0000 C   0  0  0  0  0  0  0  0  0  0  0  0
   -0.0000   -3.6073    0.0000 C   0  0  0  0  0  0  0  0  0  0  0  0
    1.2135   -2.7256    0.0000 N   0  0  0  0  0  0  0  0  0  0  0  0
    0.7500   -1.2990    0.0000 C   0  0  0  0  0  0  0  0  0  0  0  0
    1.5000    0.0000    0.0000 C   0  0  0  0  0  0  0  0  0  0  0  0
    0.7500    1.2990    0.0000 C   0  0  0  0  0  0  0  0  0  0  0  0
   -0.7500    1.2990    0.0000 C   0  0  0  0  0  0  0  0  0  0  0  0
   -1.5000    0.0000    0.0000 C   0  0  0  0  0  0  0  0  0  0  0  0
   -0.7500   -1.2990    0.0000 C   0  0  0  0  0  0  0  0  0  0  0  0
   -4.3786   -5.1199    0.0000 C   0  0  0  0  0  0  0  0  0  0  0  0
   -5.4933   -4.1162    0.0000 O   0  0  0  0  0  0  0  0  0  0  0  0
   -4.6904   -6.5871    0.0000 N   0  0  0  0  0  0  0  0  0  0  0  0
   -6.1170   -7.0506    0.0000 C   0  0  0  0  0  0  0  0  0  0  0  0
   -7.2317   -6.0469    0.0000 C   0  0  0  0  0  0  0  0  0  0  0  0
   -8.6583   -6.5105    0.0000 C   0  0  0  0  0  0  0  0  0  0  0  0
   -8.9702   -7.9777    0.0000 C   0  0  0  0  0  0  0  0  0  0  0  0
   -7.8555   -8.9814    0.0000 C   0  0  0  0  0  0  0  0  0  0  0  0
   -6.4289   -8.5179    0.0000 C   0  0  0  0  0  0  0  0  0  0  0  0
   -1.3463   -9.5982    0.0000 C   0  0  0  0  0  0  0  0  0  0  0  0
  1  2  2  0
  2  3  1  0
  3  4  1  0
  2  5  1  0
  5  6  2  0
  6  7  1  0
  7  8  2  0
  8  9  1  0
  9 10  1  0
 10 11  2  0
 10 12  2  0
 10 13  1  0
 13 14  1  0
 14 15  1  0
 15 16  1  0
 16 17  2  0
 17 18  1  0
 18 19  1  0
 19 20  2  0
 20 21  1  0
 21 22  2  0
 22 23  1  0
 23 24  2  0
 14 25  1  0
 25 26  2  0
 25 27  1  0
 27 28  1  0
 28 29  2  0
 29 30  1  0
 30 31  2  0
 31 32  1  0
 32 33  2  0
  9 34  2  0
 34  5  1  0
 24 16  1  0
 33 28  1  0
 24 19  1  0
M  END
>  <molecule_chembl_id>  (9) 
CHEMBL4214401

>  <canonical_smiles>  (9) 
O=C(NO)c1cccc(S(=O)(=O)NC(Cc2c[nH]c3ccccc23)C(=O)Nc2ccccc2)c1

>  <pchembl_value_mean>  (9) 
4.15

>  <document_chembl_id>  (9) 
CHEMBL4196083

$$$$

     RDKit          2D

 18 18  0  0  0  0  0  0  0  0999 V2000
   10.5000   -5.1962    0.0000 C   0  0  0  0  0  0  0  0  0  0  0  0
    9.7500   -3.8971    0.0000 C   0  0  0  0  0  0  0  0  0  0  0  0
    8.2500   -3.8971    0.0000 O   0  0  0  0  0  0  0  0  0  0  0  0
    7.5000   -2.5981    0.0000 C   0  0  0  0  0  0  0  0  0  0  0  0
    8.2500   -1.2990    0.0000 O   0  0  0  0  0  0  0  0  0  0  0  0
    6.0000   -2.5981    0.0000 C   0  0  0  0  0  0  0  0  0  0  0  0
    5.2500   -1.2990    0.0000 C   0  0  0  0  0  0  0  0  0  0  0  0
    6.0000    0.0000    0.0000 O   0  0  0  0  0  0  0  0  0  0  0  0
    3.7500   -1.2990    0.0000 C   0  0  0  0  0  0  0  0  0  0  0  0
    3.0000    0.0000    0.0000 S   0  0  0  0  0  0  0  0  0  0  0  0
    1.5000    0.0000    0.0000 C   0  0  0  0  0  0  0  0  0  0  0  0
    0.7500   -1.2990    0.0000 N   0  0  0  0  0  0  0  0  0  0  0  0
   -0.7500   -1.2990    0.0000 C   0  0  0  0  0  0  0  0  0  0  0  0
   -1.5000   -2.5981    0.0000 C   0  0  0  0  0  0  0  0  0  0  0  0
   -1.5000    0.0000    0.0000 C   0  0  0  0  0  0  0  0  0  0  0  0
   -0.7500    1.2990    0.0000 C   0  0  0  0  0  0  0  0  0  0  0  0
   -1.5000    2.5981    0.0000 O   0  0  0  0  0  0  0  0  0  0  0  0
    0.7500    1.2990    0.0000 N   0  0  0  0  0  0  0  0  0  0  0  0
  1  2  1  0
  2  3  1  0
  3  4  1  0
  4  5  2  0
  4  6  1  0
  6  7  1  0
  7  8  2  0
  7  9  1  0
  9 10  1  0
 10 11  1  0
 11 12  2  0
 12 13  1  0
 13 14  1  0
 13 15  2  0
 15 16  1  0
 16 17  1  0
 16 18  2  0
 18 11  1  0
M  END
>  <molecule_chembl_id>  (10) 
CHEMBL1800383

>  <canonical_smiles>  (10) 
CCOC(=O)CC(=O)CSc1nc(C)cc(O)n1

>  <pchembl_value_mean>  (10) 
4.16

>  <document_chembl_id>  (10) 
CHEMBL1800036

$$$$

     RDKit          2D

 24 26  0  0  0  0  0  0  0  0999 V2000
    7.5000   -0.0000    0.0000 C   0  0  0  0  0  0  0  0  0  0  0  0
    6.0000   -0.0000    0.0000 O   0  0  0  0  0  0  0  0  0  0  0  0
    5.2500   -1.2990    0.0000 C   0  0  0  0  0  0  0  0  0  0  0  0
    6.0000   -2.5981    0.0000 C   0  0  0  0  0  0  0  0  0  0  0  0
    5.2500   -3.8971    0.0000 C   0  0  0  0  0  0  0  0  0  0  0  0
    3.7500   -3.8971    0.0000 C   0  0  0  0  0  0  0  0  0  0  0  0
    3.0000   -2.5981    0.0000 C   0  0  0  0  0  0  0  0  0  0  0  0
    1.5000   -2.5981    0.0000 C   0  0  0  0  0  0  0  0  0  0  0  0
    0.7500   -1.2990    0.0000 C   0  0  0  0  0  0  0  0  0  0  0  0
    1.5000    0.0000    0.0000 C   0  0  0  0  0  0  0  0  0  0  0  0
    0.7500    1.2990    0.0000 C   0  0  0  0  0  0  0  0  0  0  0  0
   -0.7500    1.2990    0.0000 C   0  0  0  0  0  0  0  0  0  0  0  0
   -1.5000    0.0000    0.0000 C   0  0  0  0  0  0  0  0  0  0  0  0
   -0.7500   -1.2990    0.0000 C   0  0  0  0  0  0  0  0  0  0  0  0
   -1.5000   -2.5981    0.0000 C   0  0  0  0  0  0  0  0  0  0  0  0
   -0.7500   -3.8971    0.0000 C   0  0  0  0  0  0  0  0  0  0  0  0
    0.7500   -3.8971    0.0000 N   0  0  0  0  0  0  0  0  0  0  0  0
    1.5000   -5.1962    0.0000 C   0  0  0  0  0  0  0  0  0  0  0  0
    0.7500   -6.4952    0.0000 C   0  0  0  0  0  0  0  0  0  0  0  0
    1.5000   -7.7942    0.0000 C   0  0  0  0  0  0  0  0  0  0  0  0
    3.0000   -7.7942    0.0000 O   0  0  0  0  0  0  0  0  0  0  0  0
    0.7500   -9.0933    0.0000 N   0  0  0  0  0  0  0  0  0  0  0  0
    1.5000  -10.3923    0.0000 O   0  0  0  0  0  0  0  0  0  0  0  0
    3.7500   -1.2990    0.0000 C   0  0  0  0  0  0  0  0  0  0  0  0
  1  2  1  0
  2  3  1  0
  3  4  2  0
  4  5  1  0
  5  6  2  0
  6  7  1  0
  7  8  1  0
  8  9  1  0
  9 10  2  0
 10 11  1  0
 11 12  2  0
 12 13  1  0
 13 14  2  0
 14 15  1  0
 15 16  1  0
 16 17  1  0
 17 18  1  0
 18 19  1  0
 19 20  1  0
 20 21  2  0
 20 22  1  0
 22 23  1  0
  7 24  2  0
 24  3  1  0
 17  8  1  0
 14  9  1  0
M  END
>  <molecule_chembl_id>  (11) 
CHEMBL4206571

>  <canonical_smiles>  (11) 
COc1cccc(C2c3ccccc3CCN2CCC(=O)NO)c1

>  <pchembl_value_mean>  (11) 
4.16

>  <document_chembl_id>  (11) 
CHEMBL4190328

$$$$

     RDKit          2D

 29 30  0  0  0  0  0  0  0  0999 V2000
   15.0000   -7.7942    0.0000 C   0  0  0  0  0  0  0  0  0  0  0  0
   14.2500   -6.4952    0.0000 N   0  0  0  0  0  0  0  0  0  0  0  0
   12.7500   -6.4952    0.0000 C   0  0  0  0  0  0  0  0  0  0  0  0
   12.0000   -7.7942    0.0000 O   0  0  0  0  0  0  0  0  0  0  0  0
   12.0000   -5.1962    0.0000 C   0  0  0  0  0  0  0  0  0  0  0  0
   10.5000   -5.1962    0.0000 C   0  0  0  0  0  0  0  0  0  0  0  0
    9.7500   -3.8971    0.0000 C   0  0  0  0  0  0  0  0  0  0  0  0
    8.2500   -3.8971    0.0000 C   0  0  0  0  0  0  0  0  0  0  0  0
    7.5000   -2.5981    0.0000 C   0  0  0  0  0  0  0  0  0  0  0  0
    6.0000   -2.5981    0.0000 C   0  0  0  0  0  0  0  0  0  0  0  0
    5.2500   -1.2990    0.0000 C   0  0  0  0  0  0  0  0  0  0  0  0
    3.7500   -1.2990    0.0000 C   0  0  0  0  0  0  0  0  0  0  0  0
    3.0000   -2.5981    0.0000 O   0  0  0  0  0  0  0  0  0  0  0  0
    3.0000    0.0000    0.0000 N   0  0  0  0  0  0  0  0  0  0  0  0
    1.5000    0.0000    0.0000 C   0  0  0  0  0  0  0  0  0  0  0  0
    0.7500   -1.2990    0.0000 C   0  0  0  0  0  0  0  0  0  0  0  0
   -0.7500   -1.2990    0.0000 C   0  0  0  0  0  0  0  0  0  0  0  0
   -1.5000    0.0000    0.0000 C   0  0  0  0  0  0  0  0  0  0  0  0
   -0.7500    1.2990    0.0000 C   0  0  0  0  0  0  0  0  0  0  0  0
   -1.5000    2.5981    0.0000 C   0  0  0  0  0  0  0  0  0  0  0  0
   -0.7500    3.8971    0.0000 C   0  0  0  0  0  0  0  0  0  0  0  0
   -1.5000    5.1962    0.0000 C   0  0  0  0  0  0  0  0  0  0  0  0
   -3.0000    5.1962    0.0000 C   0  0  0  0  0  0  0  0  0  0  0  0
   -3.7500    6.4952    0.0000 Cl  0  0  0  0  0  0  0  0  0  0  0  0
   -3.7500    3.8971    0.0000 N   0  0  0  0  0  0  0  0  0  0  0  0
   -3.0000    2.5981    0.0000 C   0  0  0  0  0  0  0  0  0  0  0  0
    0.7500    1.2990    0.0000 C   0  0  0  0  0  0  0  0  0  0  0  0
   12.7500   -3.8971    0.0000 N   0  0  0  0  0  0  0  0  0  0  0  0
   14.2500   -3.8971    0.0000 O   0  0  0  0  0  0  0  0  0  0  0  0
  1  2  1  0
  2  3  1  0
  3  4  2  0
  3  5  1  0
  5  6  1  0
  6  7  1  0
  7  8  1  0
  8  9  1  0
  9 10  1  0
 10 11  1  0
 11 12  1  0
 12 13  2  0
 12 14  1  0
 14 15  1  0
 15 16  2  0
 16 17  1  0
 17 18  2  0
 18 19  1  0
 19 20  1  0
 20 21  2  0
 21 22  1  0
 22 23  2  0
 23 24  1  0
 23 25  1  0
 25 26  2  0
 19 27  2  0
  5 28  2  3
 28 29  1  0
 27 15  1  0
 26 20  1  0
M  END
>  <molecule_chembl_id>  (12) 
CHEMBL1767039

>  <canonical_smiles>  (12) 
CNC(=O)C(CCCCCCC(=O)Nc1cccc(-c2ccc(Cl)nc2)c1)=NO

>  <pchembl_value_mean>  (12) 
4.16

>  <document_chembl_id>  (12) 
CHEMBL1765034

$$$$

     RDKit          2D

 12 12  0  0  0  0  0  0  0  0999 V2000
    5.2500   -3.8971    0.0000 O   0  0  0  0  0  0  0  0  0  0  0  0
    6.0000   -2.5981    0.0000 C   0  0  0  0  0  0  0  0  0  0  0  0
    7.5000   -2.5981    0.0000 O   0  0  0  0  0  0  0  0  0  0  0  0
    5.2500   -1.2990    0.0000 C   0  0  0  0  0  0  0  0  0  0  0  0
    3.7500   -1.2990    0.0000 C   0  0  0  0  0  0  0  0  0  0  0  0
    3.0000    0.0000    0.0000 C   0  0  0  0  0  0  0  0  0  0  0  0
    1.5000    0.0000    0.0000 C   0  0  0  0  0  0  0  0  0  0  0  0
    0.7500   -1.2990    0.0000 C   0  0  0  0  0  0  0  0  0  0  0  0
   -0.7500   -1.2990    0.0000 C   0  0  0  0  0  0  0  0  0  0  0  0
   -1.5000    0.0000    0.0000 C   0  0  0  0  0  0  0  0  0  0  0  0
   -0.7500    1.2990    0.0000 C   0  0  0  0  0  0  0  0  0  0  0  0
    0.7500    1.2990    0.0000 C   0  0  0  0  0  0  0  0  0  0  0  0
  1  2  2  0
  2  3  1  0
  2  4  1  0
  4  5  1  0
  5  6  1  0
  6  7  1  0
  7  8  2  0
  8  9  1  0
  9 10  2  0
 10 11  1  0
 11 12  2  0
 12  7  1  0
M  END
>  <molecule_chembl_id>  (13) 
CHEMBL1469

>  <canonical_smiles>  (13) 
O=C(O)CCCc1ccccc1

>  <pchembl_value_mean>  (13) 
4.19

>  <document_chembl_id>  (13) 
CHEMBL1671826

$$$$

     RDKit          2D

 22 24  0  0  0  0  0  0  0  0999 V2000
    3.7500    1.2990    0.0000 O   0  0  0  0  0  0  0  0  0  0  0  0
    3.0000    0.0000    0.0000 C   0  0  0  0  0  0  0  0  0  0  0  0
    3.7500   -1.2990    0.0000 N   0  0  0  0  0  0  0  0  0  0  0  0
    5.2500   -1.2990    0.0000 O   0  0  0  0  0  0  0  0  0  0  0  0
    1.5000    0.0000    0.0000 C   0  0  0  0  0  0  0  0  0  0  0  0
    0.7500   -1.2990    0.0000 C   0  0  0  0  0  0  0  0  0  0  0  0
   -0.7500   -1.2990    0.0000 C   0  0  0  0  0  0  0  0  0  0  0  0
   -1.5000    0.0000    0.0000 C   0  0  0  0  0  0  0  0  0  0  0  0
   -0.7500    1.2990    0.0000 C   0  0  0  0  0  0  0  0  0  0  0  0
   -1.5000    2.5981    0.0000 C   0  0  0  0  0  0  0  0  0  0  0  0
   -2.9918    2.7549    0.0000 C   0  0  0  0  0  0  0  0  0  0  0  0
   -3.3037    4.2221    0.0000 N   0  0  0  0  0  0  0  0  0  0  0  0
   -4.6740    4.8322    0.0000 C   0  0  0  0  0  0  0  0  0  0  0  0
   -4.8308    6.3240    0.0000 C   0  0  0  0  0  0  0  0  0  0  0  0
   -3.6172    7.2057    0.0000 C   0  0  0  0  0  0  0  0  0  0  0  0
   -3.7740    8.6974    0.0000 C   0  0  0  0  0  0  0  0  0  0  0  0
   -5.1443    9.3075    0.0000 C   0  0  0  0  0  0  0  0  0  0  0  0
   -6.3579    8.4259    0.0000 C   0  0  0  0  0  0  0  0  0  0  0  0
   -6.2011    6.9341    0.0000 C   0  0  0  0  0  0  0  0  0  0  0  0
   -2.0046    4.9721    0.0000 N   0  0  0  0  0  0  0  0  0  0  0  0
   -0.8899    3.9684    0.0000 N   0  0  0  0  0  0  0  0  0  0  0  0
    0.7500    1.2990    0.0000 C   0  0  0  0  0  0  0  0  0  0  0  0
  1  2  2  0
  2  3  1  0
  3  4  1  0
  2  5  1  0
  5  6  2  0
  6  7  1  0
  7  8  2  0
  8  9  1  0
  9 10  1  0
 10 11  2  0
 11 12  1  0
 12 13  1  0
 13 14  1  0
 14 15  2  0
 15 16  1  0
 16 17  2  0
 17 18  1  0
 18 19  2  0
 12 20  1  0
 20 21  2  0
  9 22  2  0
 22  5  1  0
 21 10  1  0
 19 14  1  0
M  END
>  <molecule_chembl_id>  (14) 
CHEMBL2178345

>  <canonical_smiles>  (14) 
O=C(NO)c1cccc(-c2cn(Cc3ccccc3)nn2)c1

>  <pchembl_value_mean>  (14) 
4.19

>  <document_chembl_id>  (14) 
CHEMBL2176939

$$$$

     RDKit          2D

 10  9  0  0  0  0  0  0  0  0999 V2000
    0.0000    0.0000    0.0000 C   0  0  0  0  0  0  0  0  0  0  0  0
    1.2990    0.7500    0.0000 C   0  0  0  0  0  0  0  0  0  0  0  0
    2.5981   -0.0000    0.0000 C   0  0  0  0  0  0  0  0  0  0  0  0
    3.8971    0.7500    0.0000 C   0  0  0  0  0  0  0  0  0  0  0  0
    5.1962   -0.0000    0.0000 C   0  0  0  0  0  0  0  0  0  0  0  0
    6.4952    0.7500    0.0000 C   0  0  0  0  0  0  0  0  0  0  0  0
    7.7942   -0.0000    0.0000 C   0  0  0  0  0  0  0  0  0  0  0  0
    3.8971    2.2500    0.0000 C   0  0  0  0  0  0  0  0  0  0  0  0
    2.5981    3.0000    0.0000 O   0  0  0  0  0  0  0  0  0  0  0  0
    5.1962    3.0000    0.0000 O   0  0  0  0  0  0  0  0  0  0  0  0
  1  2  1  0
  2  3  1  0
  3  4  1  0
  4  5  1  0
  5  6  1  0
  6  7  1  0
  4  8  1  0
  8  9  2  0
  8 10  1  0
M  END
>  <molecule_chembl_id>  (15) 
CHEMBL109

>  <canonical_smiles>  (15) 
CCCC(CCC)C(=O)O

>  <pchembl_value_mean>  (15) 
4.21

>  <document_chembl_id>  (15) 
CHEMBL1671826

$$$$

     RDKit          2D

 16 16  0  0  0  0  0  0  0  0999 V2000
   10.5000   -2.5981    0.0000 O   0  0  0  0  0  0  0  0  0  0  0  0
    9.7500   -3.8971    0.0000 C   0  0  0  0  0  0  0  0  0  0  0  0
    8.2500   -3.8971    0.0000 C   0  0  0  0  0  0  0  0  0  0  0  0
    7.5000   -2.5981    0.0000 C   0  0  0  0  0  0  0  0  0  0  0  0
    6.0000   -2.5981    0.0000 C   0  0  0  0  0  0  0  0  0  0  0  0
    5.2500   -1.2990    0.0000 C   0  0  0  0  0  0  0  0  0  0  0  0
    3.7500   -1.2990    0.0000 N   0  0  0  0  0  0  0  0  0  0  0  0
    3.0000    0.0000    0.0000 C   0  0  0  0  0  0  0  0  0  0  0  0
    1.5000    0.0000    0.0000 C   0  0  0  0  0  0  0  0  0  0  0  0
    0.7500   -1.2990    0.0000 C   0  0  0  0  0  0  0  0  0  0  0  0
   -0.7500   -1.2990    0.0000 C   0  0  0  0  0  0  0  0  0  0  0  0
   -1.5000    0.0000    0.0000 C   0  0  0  0  0  0  0  0  0  0  0  0
   -0.7500    1.2990    0.0000 C   0  0  0  0  0  0  0  0  0  0  0  0
    0.7500    1.2990    0.0000 C   0  0  0  0  0  0  0  0  0  0  0  0
   10.5000   -5.1962    0.0000 N   0  0  0  0  0  0  0  0  0  0  0  0
   12.0000   -5.1962    0.0000 O   0  0  0  0  0  0  0  0  0  0  0  0
  1  2  2  0
  2  3  1  0
  3  4  1  0
  4  5  1  0
  5  6  1  0
  6  7  1  0
  7  8  1  0
  8  9  1  0
  9 10  2  0
 10 11  1  0
 11 12  2  0
 12 13  1  0
 13 14  2  0
  2 15  1  0
 15 16  1  0
 14  9  1  0
M  END
>  <molecule_chembl_id>  (16) 
CHEMBL4216233

>  <canonical_smiles>  (16) 
O=C(CCCCNCc1ccccc1)NO

>  <pchembl_value_mean>  (16) 
4.24

>  <document_chembl_id>  (16) 
CHEMBL4190328

$$$$

     RDKit          2D

 52 58  0  0  0  0  0  0  0  0999 V2000
   -9.4590    4.8414    0.0000 C   0  0  0  0  0  0  0  0  0  0  0  0
   -8.0325    5.3050    0.0000 O   0  0  0  0  0  0  0  0  0  0  0  0
   -6.9177    4.3013    0.0000 C   0  0  0  0  0  0  0  0  0  0  0  0
   -5.4912    4.7648    0.0000 C   0  0  0  0  0  0  0  0  0  0  0  0
   -4.3764    3.7611    0.0000 C   0  0  0  0  0  0  0  0  0  0  0  0
   -2.9499    4.2246    0.0000 C   0  0  0  0  0  0  0  0  0  0  0  0
   -1.8351    3.2209    0.0000 C   0  0  0  0  0  0  0  0  0  0  0  0
   -2.1470    1.7537    0.0000 C   0  0  0  0  0  0  0  0  0  0  0  0
   -1.0323    0.7500    0.0000 C   0  0  0  0  0  0  0  0  0  0  0  0
    0.3943    1.2135    0.0000 C   0  0  0  0  0  0  0  0  0  0  0  0
    0.7062    2.6807    0.0000 C   0  0  0  0  0  0  0  0  0  0  0  0
   -0.4086    3.6844    0.0000 C   0  0  0  0  0  0  0  0  0  0  0  0
   -0.0967    5.1517    0.0000 C   0  0  0  0  0  0  0  0  0  0  0  0
    1.3299    5.6152    0.0000 N   0  0  0  0  0  0  0  0  0  0  0  0
    2.4446    4.6115    0.0000 C   0  0  0  0  0  0  0  0  0  0  0  0
    2.1328    3.1443    0.0000 C   0  0  0  0  0  0  0  0  0  0  0  0
    3.2475    2.1406    0.0000 C   0  0  0  0  0  0  0  0  0  0  0  0
    4.6741    2.6041    0.0000 C   0  0  0  0  0  0  0  0  0  0  0  0
    4.9859    4.0713    0.0000 C   0  0  0  0  0  0  0  0  0  0  0  0
    6.4125    4.5348    0.0000 O   0  0  0  0  0  0  0  0  0  0  0  0
    7.5272    3.5312    0.0000 C   0  0  0  0  0  0  0  0  0  0  0  0
    8.9538    3.9947    0.0000 C   0  0  0  0  0  0  0  0  0  0  0  0
   10.0685    2.9910    0.0000 C   0  0  0  0  0  0  0  0  0  0  0  0
   11.4951    3.4545    0.0000 C   0  0  0  0  0  0  0  0  0  0  0  0
   12.6098    2.4508    0.0000 C   0  0  0  0  0  0  0  0  0  0  0  0
   14.0364    2.9143    0.0000 C   0  0  0  0  0  0  0  0  0  0  0  0
   15.1511    1.9106    0.0000 C   0  0  0  0  0  0  0  0  0  0  0  0
   14.8393    0.4434    0.0000 O   0  0  0  0  0  0  0  0  0  0  0  0
   16.5777    2.3742    0.0000 N   0  0  0  0  0  0  0  0  0  0  0  0
   17.6924    1.3705    0.0000 C   0  0  0  0  0  0  0  0  0  0  0  0
   17.3806   -0.0968    0.0000 C   0  0  0  0  0  0  0  0  0  0  0  0
   18.4953   -1.1004    0.0000 C   0  0  0  0  0  0  0  0  0  0  0  0
   19.9219   -0.6369    0.0000 C   0  0  0  0  0  0  0  0  0  0  0  0
   20.2337    0.8303    0.0000 C   0  0  0  0  0  0  0  0  0  0  0  0
   19.1190    1.8340    0.0000 C   0  0  0  0  0  0  0  0  0  0  0  0
   19.4309    3.3012    0.0000 N   0  0  0  0  0  0  0  0  0  0  0  0
    3.8712    5.0750    0.0000 C   0  0  0  0  0  0  0  0  0  0  0  0
   -1.2114    6.1554    0.0000 C   0  0  0  0  0  0  0  0  0  0  0  0
   -1.2114    7.6554    0.0000 C   0  0  0  0  0  0  0  0  0  0  0  0
   -2.6380    8.1189    0.0000 O   0  0  0  0  0  0  0  0  0  0  0  0
   -3.5197    6.9054    0.0000 C   0  0  0  0  0  0  0  0  0  0  0  0
   -5.0197    6.9054    0.0000 O   0  0  0  0  0  0  0  0  0  0  0  0
   -2.6380    5.6918    0.0000 C   0  0  0  0  0  0  0  0  0  0  0  0
    1.2760    0.0000    0.0000 O   0  0  0  0  0  0  0  0  0  0  0  0
    0.3943   -1.2135    0.0000 C   0  0  0  0  0  0  0  0  0  0  0  0
   -1.0323   -0.7500    0.0000 O   0  0  0  0  0  0  0  0  0  0  0  0
   -4.6883    2.2939    0.0000 C   0  0  0  0  0  0  0  0  0  0  0  0
   -6.1149    1.8303    0.0000 C   0  0  0  0  0  0  0  0  0  0  0  0
   -6.4268    0.3631    0.0000 O   0  0  0  0  0  0  0  0  0  0  0  0
   -7.8533   -0.1004    0.0000 C   0  0  0  0  0  0  0  0  0  0  0  0
   -7.2296    2.8340    0.0000 C   0  0  0  0  0  0  0  0  0  0  0  0
   -8.6562    2.3705    0.0000 O   0  0  0  0  0  0  0  0  0  0  0  0
  1  2  1  0
  2  3  1  0
  3  4  2  0
  4  5  1  0
  5  6  1  0
  6  7  1  0
  7  8  2  0
  8  9  1  0
  9 10  2  0
 10 11  1  0
 11 12  2  0
 12 13  1  0
 13 14  1  0
 14 15  1  0
 15 16  2  0
 16 17  1  0
 17 18  2  0
 18 19  1  0
 19 20  1  0
 20 21  1  0
 21 22  1  0
 22 23  1  0
 23 24  1  0
 24 25  1  0
 25 26  1  0
 26 27  1  0
 27 28  2  0
 27 29  1  0
 29 30  1  0
 30 31  2  0
 31 32  1  0
 32 33  2  0
 33 34  1  0
 34 35  2  0
 35 36  1  0
 19 37  2  0
 13 38  1  0
 38 39  1  0
 39 40  1  0
 40 41  1  0
 41 42  2  0
 41 43  1  0
 10 44  1  0
 44 45  1  0
 45 46  1  0
  5 47  2  0
 47 48  1  0
 48 49  1  0
 49 50  1  0
 48 51  2  0
 51 52  1  0
 51  3  1  0
 43  6  1  0
 12  7  1  0
 37 15  1  0
 43 38  1  0
 46  9  1  0
 35 30  1  0
M  END
>  <molecule_chembl_id>  (17) 
CHEMBL2442695

>  <canonical_smiles>  (17) 
COc1cc(C2c3cc4c(cc3C(Nc3cccc(OCCCCCCC(=O)Nc5ccccc5N)c3)C3COC(=O)C23)OCO4)cc(OC)c1O

>  <pchembl_value_mean>  (17) 
4.27

>  <document_chembl_id>  (17) 
CHEMBL2439983

$$$$

     RDKit          2D

 16 18  0  0  0  0  0  0  0  0999 V2000
    3.2475    2.1406    0.0000 F   0  0  0  0  0  0  0  0  0  0  0  0
    2.1328    3.1443    0.0000 C   0  0  0  0  0  0  0  0  0  0  0  0
    2.4446    4.6115    0.0000 C   0  0  0  0  0  0  0  0  0  0  0  0
    1.3299    5.6152    0.0000 C   0  0  0  0  0  0  0  0  0  0  0  0
    1.6418    7.0824    0.0000 Br  0  0  0  0  0  0  0  0  0  0  0  0
   -0.0967    5.1517    0.0000 C   0  0  0  0  0  0  0  0  0  0  0  0
   -0.4086    3.6844    0.0000 C   0  0  0  0  0  0  0  0  0  0  0  0
    0.7062    2.6807    0.0000 C   0  0  0  0  0  0  0  0  0  0  0  0
    0.3943    1.2135    0.0000 C   0  0  0  0  0  0  0  0  0  0  0  0
    1.2760    0.0000    0.0000 N   0  0  0  0  0  0  0  0  0  0  0  0
    0.3943   -1.2135    0.0000 C   0  0  0  0  0  0  0  0  0  0  0  0
   -1.0323   -0.7500    0.0000 C   0  0  0  0  0  0  0  0  0  0  0  0
   -1.0323    0.7500    0.0000 N   0  0  0  0  0  0  0  0  0  0  0  0
   -2.1470    1.7537    0.0000 C   0  0  0  0  0  0  0  0  0  0  0  0
   -3.5736    1.2902    0.0000 S   0  0  0  0  0  0  0  0  0  0  0  0
   -1.8351    3.2209    0.0000 S   0  0  0  0  0  0  0  0  0  0  0  0
  1  2  1  0
  2  3  2  0
  3  4  1  0
  4  5  1  0
  4  6  2  0
  6  7  1  0
  7  8  2  0
  8  9  1  0
  9 10  2  0
 10 11  1  0
 11 12  1  0
 12 13  1  0
 13 14  1  0
 14 15  2  0
 14 16  1  0
  8  2  1  0
 13  9  1  0
 16  7  1  0
M  END
>  <molecule_chembl_id>  (18) 
CHEMBL4580307

>  <canonical_smiles>  (18) 
Fc1cc(Br)cc2c1C1=NCCN1C(=S)S2

>  <pchembl_value_mean>  (18) 
4.3

>  <document_chembl_id>  (18) 
CHEMBL4406872

$$$$

     RDKit          2D

 17 19  0  0  0  0  0  0  0  0999 V2000
   -5.1793    6.2320    0.0000 C   0  0  0  0  0  0  0  0  0  0  0  0
   -5.4912    4.7648    0.0000 N   0  0  0  0  0  0  0  0  0  0  0  0
   -6.9177    4.3013    0.0000 C   0  0  0  0  0  0  0  0  0  0  0  0
   -4.3764    3.7611    0.0000 C   0  0  0  0  0  0  0  0  0  0  0  0
   -4.6883    2.2939    0.0000 C   0  0  0  0  0  0  0  0  0  0  0  0
   -3.5736    1.2902    0.0000 C   0  0  0  0  0  0  0  0  0  0  0  0
   -2.1470    1.7537    0.0000 C   0  0  0  0  0  0  0  0  0  0  0  0
   -1.8351    3.2209    0.0000 C   0  0  0  0  0  0  0  0  0  0  0  0
   -2.9499    4.2246    0.0000 C   0  0  0  0  0  0  0  0  0  0  0  0
   -0.4086    3.6844    0.0000 S   0  0  0  0  0  0  0  0  0  0  0  0
    0.7062    2.6807    0.0000 C   0  0  0  0  0  0  0  0  0  0  0  0
    2.1328    3.1443    0.0000 S   0  0  0  0  0  0  0  0  0  0  0  0
    0.3943    1.2135    0.0000 N   0  0  0  0  0  0  0  0  0  0  0  0
    1.2760    0.0000    0.0000 C   0  0  0  0  0  0  0  0  0  0  0  0
    0.3943   -1.2135    0.0000 C   0  0  0  0  0  0  0  0  0  0  0  0
   -1.0323   -0.7500    0.0000 N   0  0  0  0  0  0  0  0  0  0  0  0
   -1.0323    0.7500    0.0000 C   0  0  0  0  0  0  0  0  0  0  0  0
  1  2  1  0
  2  3  1  0
  2  4  1  0
  4  5  2  0
  5  6  1  0
  6  7  2  0
  7  8  1  0
  8  9  2  0
  8 10  1  0
 10 11  1  0
 11 12  2  0
 11 13  1  0
 13 14  1  0
 14 15  1  0
 15 16  1  0
 16 17  2  0
  9  4  1  0
 17 13  1  0
 17  7  1  0
M  END
>  <molecule_chembl_id>  (19) 
CHEMBL4556055

>  <canonical_smiles>  (19) 
CN(C)c1ccc2c(c1)SC(=S)N1CCN=C21

>  <pchembl_value_mean>  (19) 
4.3

>  <document_chembl_id>  (19) 
CHEMBL4406872

$$$$

     RDKit          2D

 28 29  0  0  0  0  0  0  0  0999 V2000
   12.4663  -16.8334    0.0000 C   0  0  0  0  0  0  0  0  0  0  0  0
   12.3095  -15.3416    0.0000 N   0  0  0  0  0  0  0  0  0  0  0  0
   10.9392  -14.7315    0.0000 C   0  0  0  0  0  0  0  0  0  0  0  0
    9.7257  -15.6132    0.0000 O   0  0  0  0  0  0  0  0  0  0  0  0
   10.7824  -13.2397    0.0000 C   0  0  0  0  0  0  0  0  0  0  0  0
    9.4121  -12.6296    0.0000 C   0  0  0  0  0  0  0  0  0  0  0  0
    9.2553  -11.1379    0.0000 C   0  0  0  0  0  0  0  0  0  0  0  0
    7.8850  -10.5278    0.0000 C   0  0  0  0  0  0  0  0  0  0  0  0
    7.7282   -9.0360    0.0000 C   0  0  0  0  0  0  0  0  0  0  0  0
    6.3579   -8.4259    0.0000 C   0  0  0  0  0  0  0  0  0  0  0  0
    6.2011   -6.9341    0.0000 C   0  0  0  0  0  0  0  0  0  0  0  0
    4.8308   -6.3240    0.0000 N   0  0  0  0  0  0  0  0  0  0  0  0
    4.6740   -4.8322    0.0000 C   0  0  0  0  0  0  0  0  0  0  0  0
    5.8875   -3.9505    0.0000 O   0  0  0  0  0  0  0  0  0  0  0  0
    3.3037   -4.2221    0.0000 C   0  0  0  0  0  0  0  0  0  0  0  0
    2.9918   -2.7549    0.0000 C   0  0  0  0  0  0  0  0  0  0  0  0
    1.5000   -2.5981    0.0000 C   0  0  0  0  0  0  0  0  0  0  0  0
    0.7500   -1.2990    0.0000 C   0  0  0  0  0  0  0  0  0  0  0  0
    1.5000    0.0000    0.0000 C   0  0  0  0  0  0  0  0  0  0  0  0
    0.7500    1.2990    0.0000 C   0  0  0  0  0  0  0  0  0  0  0  0
   -0.7500    1.2990    0.0000 C   0  0  0  0  0  0  0  0  0  0  0  0
   -1.5000    2.5981    0.0000 N   0  0  0  0  0  0  0  0  0  0  0  0
   -1.5000    0.0000    0.0000 C   0  0  0  0  0  0  0  0  0  0  0  0
   -0.7500   -1.2990    0.0000 C   0  0  0  0  0  0  0  0  0  0  0  0
    0.8899   -3.9684    0.0000 O   0  0  0  0  0  0  0  0  0  0  0  0
    2.0046   -4.9721    0.0000 N   0  0  0  0  0  0  0  0  0  0  0  0
   11.9959  -12.3581    0.0000 N   0  0  0  0  0  0  0  0  0  0  0  0
   13.3663  -12.9682    0.0000 O   0  0  0  0  0  0  0  0  0  0  0  0
  1  2  1  0
  2  3  1  0
  3  4  2  0
  3  5  1  0
  5  6  1  0
  6  7  1  0
  7  8  1  0
  8  9  1  0
  9 10  1  0
 10 11  1  0
 11 12  1  0
 12 13  1  0
 13 14  2  0
 13 15  1  0
 15 16  1  0
 16 17  2  0
 17 18  1  0
 18 19  2  0
 19 20  1  0
 20 21  2  0
 21 22  1  0
 21 23  1  0
 23 24  2  0
 17 25  1  0
 25 26  1  0
  5 27  2  3
 27 28  1  0
 26 15  2  0
 24 18  1  0
M  END
>  <molecule_chembl_id>  (20) 
CHEMBL1767044

>  <canonical_smiles>  (20) 
CNC(=O)C(CCCCCCNC(=O)c1cc(-c2ccc(N)cc2)on1)=NO

>  <pchembl_value_mean>  (20) 
4.32

>  <document_chembl_id>  (20) 
CHEMBL1765034

$$$$

     RDKit          2D

 21 22  0  0  0  0  0  0  0  0999 V2000
    3.7500    1.2990    0.0000 O   0  0  0  0  0  0  0  0  0  0  0  0
    3.0000    0.0000    0.0000 C   0  0  0  0  0  0  0  0  0  0  0  0
    3.7500   -1.2990    0.0000 N   0  0  0  0  0  0  0  0  0  0  0  0
    5.2500   -1.2990    0.0000 O   0  0  0  0  0  0  0  0  0  0  0  0
    1.5000    0.0000    0.0000 C   0  0  0  0  0  0  0  0  0  0  0  0
    0.7500   -1.2990    0.0000 C   0  0  0  0  0  0  0  0  0  0  0  0
   -0.7500   -1.2990    0.0000 C   0  0  0  0  0  0  0  0  0  0  0  0
   -1.5000    0.0000    0.0000 C   0  0  0  0  0  0  0  0  0  0  0  0
   -0.7500    1.2990    0.0000 C   0  0  0  0  0  0  0  0  0  0  0  0
   -1.5000    2.5981    0.0000 S   0  0  0  0  0  0  0  0  0  0  0  0
   -0.2010    3.3481    0.0000 O   0  0  0  0  0  0  0  0  0  0  0  0
   -2.7990    1.8481    0.0000 O   0  0  0  0  0  0  0  0  0  0  0  0
   -2.2500    3.8971    0.0000 N   0  0  0  0  0  0  0  0  0  0  0  0
   -3.7500    3.8971    0.0000 C   0  0  0  0  0  0  0  0  0  0  0  0
   -4.5000    5.1962    0.0000 C   0  0  0  0  0  0  0  0  0  0  0  0
   -3.7500    6.4952    0.0000 C   0  0  0  0  0  0  0  0  0  0  0  0
   -4.5000    7.7942    0.0000 C   0  0  0  0  0  0  0  0  0  0  0  0
   -6.0000    7.7942    0.0000 C   0  0  0  0  0  0  0  0  0  0  0  0
   -6.7500    6.4952    0.0000 C   0  0  0  0  0  0  0  0  0  0  0  0
   -6.0000    5.1962    0.0000 C   0  0  0  0  0  0  0  0  0  0  0  0
    0.7500    1.2990    0.0000 C   0  0  0  0  0  0  0  0  0  0  0  0
  1  2  2  0
  2  3  1  0
  3  4  1  0
  2  5  1  0
  5  6  2  0
  6  7  1  0
  7  8  2  0
  8  9  1  0
  9 10  1  0
 10 11  2  0
 10 12  2  0
 10 13  1  0
 13 14  1  0
 14 15  1  0
 15 16  2  0
 16 17  1  0
 17 18  2  0
 18 19  1  0
 19 20  2  0
  9 21  2  0
 21  5  1  0
 20 15  1  0
M  END
>  <molecule_chembl_id>  (21) 
CHEMBL4218674

>  <canonical_smiles>  (21) 
O=C(NO)c1cccc(S(=O)(=O)NCc2ccccc2)c1

>  <pchembl_value_mean>  (21) 
4.33

>  <document_chembl_id>  (21) 
CHEMBL4196083

$$$$

     RDKit          2D

 15 17  0  0  0  0  0  0  0  0999 V2000
   -3.5736    1.2902    0.0000 S   0  0  0  0  0  0  0  0  0  0  0  0
   -2.1470    1.7537    0.0000 C   0  0  0  0  0  0  0  0  0  0  0  0
   -1.8351    3.2209    0.0000 S   0  0  0  0  0  0  0  0  0  0  0  0
   -0.4086    3.6844    0.0000 C   0  0  0  0  0  0  0  0  0  0  0  0
   -0.0967    5.1517    0.0000 C   0  0  0  0  0  0  0  0  0  0  0  0
    1.3299    5.6152    0.0000 C   0  0  0  0  0  0  0  0  0  0  0  0
    2.4446    4.6115    0.0000 C   0  0  0  0  0  0  0  0  0  0  0  0
    2.1328    3.1443    0.0000 C   0  0  0  0  0  0  0  0  0  0  0  0
    3.2475    2.1406    0.0000 Br  0  0  0  0  0  0  0  0  0  0  0  0
    0.7062    2.6807    0.0000 C   0  0  0  0  0  0  0  0  0  0  0  0
    0.3943    1.2135    0.0000 C   0  0  0  0  0  0  0  0  0  0  0  0
    1.2760    0.0000    0.0000 N   0  0  0  0  0  0  0  0  0  0  0  0
    0.3943   -1.2135    0.0000 C   0  0  0  0  0  0  0  0  0  0  0  0
   -1.0323   -0.7500    0.0000 C   0  0  0  0  0  0  0  0  0  0  0  0
   -1.0323    0.7500    0.0000 N   0  0  0  0  0  0  0  0  0  0  0  0
  1  2  2  0
  2  3  1  0
  3  4  1  0
  4  5  2  0
  5  6  1  0
  6  7  2  0
  7  8  1  0
  8  9  1  0
  8 10  2  0
 10 11  1  0
 11 12  2  0
 12 13  1  0
 13 14  1  0
 14 15  1  0
 15  2  1  0
 10  4  1  0
 15 11  1  0
M  END
>  <molecule_chembl_id>  (22) 
CHEMBL4527868

>  <canonical_smiles>  (22) 
S=C1Sc2cccc(Br)c2C2=NCCN12

>  <pchembl_value_mean>  (22) 
4.35

>  <document_chembl_id>  (22) 
CHEMBL4406872

$$$$

     RDKit          2D

 40 44  0  0  0  0  0  0  0  0999 V2000
   -4.5476  -20.6577    0.0000 C   0  0  0  0  0  0  0  0  0  0  0  0
   -4.7044  -19.1659    0.0000 S   0  0  0  0  0  3  0  0  0  0  0  0
   -3.4909  -18.2842    0.0000 O   0  0  0  0  0  1  0  0  0  0  0  0
   -6.0748  -18.5558    0.0000 C   0  0  0  0  0  0  0  0  0  0  0  0
   -7.2883  -19.4375    0.0000 C   0  0  0  0  0  0  0  0  0  0  0  0
   -8.6586  -18.8274    0.0000 C   0  0  0  0  0  0  0  0  0  0  0  0
   -8.8154  -17.3356    0.0000 C   0  0  0  0  0  0  0  0  0  0  0  0
   -7.6019  -16.4539    0.0000 C   0  0  0  0  0  0  0  0  0  0  0  0
   -6.2315  -17.0640    0.0000 C   0  0  0  0  0  0  0  0  0  0  0  0
   -5.0180  -16.1823    0.0000 C   0  0  0  0  0  0  0  0  0  0  0  0
   -3.6477  -16.7924    0.0000 O   0  0  0  0  0  0  0  0  0  0  0  0
   -5.1748  -14.6905    0.0000 N   0  0  0  0  0  0  0  0  0  0  0  0
   -3.9613  -13.8089    0.0000 C   0  0  0  0  0  0  0  0  0  0  0  0
   -4.1181  -12.3171    0.0000 C   0  0  0  0  0  0  0  0  0  0  0  0
   -2.9046  -11.4354    0.0000 C   0  0  0  0  0  0  0  0  0  0  0  0
   -3.0613   -9.9436    0.0000 C   0  0  0  0  0  0  0  0  0  0  0  0
   -1.8478   -9.0619    0.0000 C   0  0  0  0  0  0  0  0  0  0  0  0
   -0.4775   -9.6721    0.0000 N   0  0  0  0  0  0  0  0  0  0  0  0
   -0.3207  -11.1638    0.0000 C   0  0  0  0  0  0  0  0  0  0  0  0
   -1.5342  -12.0455    0.0000 O   0  0  0  0  0  0  0  0  0  0  0  0
    1.0496  -11.7739    0.0000 C   0  0  0  0  0  0  0  0  0  0  0  0
    2.3486  -11.0239    0.0000 C   0  0  0  0  0  0  0  0  0  0  0  0
    3.4634  -12.0276    0.0000 N   0  0  0  0  0  0  0  0  0  0  0  0
    2.8533  -13.3980    0.0000 C   0  0  0  0  0  0  0  0  0  0  0  0
    1.3615  -13.2412    0.0000 S   0  0  0  0  0  0  0  0  0  0  0  0
   -2.0046   -7.5702    0.0000 C   0  0  0  0  0  0  0  0  0  0  0  0
   -3.3037   -6.8202    0.0000 N   0  0  0  0  0  0  0  0  0  0  0  0
   -2.9918   -5.3529    0.0000 C   0  0  0  0  0  0  0  0  0  0  0  0
   -1.5000   -5.1962    0.0000 C   0  0  0  0  0  0  0  0  0  0  0  0
   -0.7500   -3.8971    0.0000 C   0  0  0  0  0  0  0  0  0  0  0  0
    0.7500   -3.8971    0.0000 C   0  0  0  0  0  0  0  0  0  0  0  0
    1.5000   -2.5981    0.0000 C   0  0  0  0  0  0  0  0  0  0  0  0
    0.7500   -1.2990    0.0000 C   0  0  0  0  0  0  0  0  0  0  0  0
    1.5000    0.0000    0.0000 C   0  0  0  0  0  0  0  0  0  0  0  0
    0.7500    1.2990    0.0000 C   0  0  0  0  0  0  0  0  0  0  0  0
   -0.7500    1.2990    0.0000 C   0  0  0  0  0  0  0  0  0  0  0  0
   -1.5000    0.0000    0.0000 C   0  0  0  0  0  0  0  0  0  0  0  0
   -0.7500   -1.2990    0.0000 C   0  0  0  0  0  0  0  0  0  0  0  0
   -1.5000   -2.5981    0.0000 C   0  0  0  0  0  0  0  0  0  0  0  0
   -0.8899   -6.5665    0.0000 N   0  0  0  0  0  0  0  0  0  0  0  0
  1  2  1  0
  2  3  1  0
  2  4  1  0
  4  5  2  0
  5  6  1  0
  6  7  2  0
  7  8  1  0
  8  9  2  0
  9 10  1  0
 10 11  2  0
 10 12  1  0
 12 13  1  0
 13 14  1  0
 14 15  1  0
 15 16  1  0
 16 17  1  0
 17 18  1  0
 18 19  1  0
 19 20  2  0
 19 21  1  0
 21 22  2  0
 22 23  1  0
 23 24  2  0
 24 25  1  0
 17 26  1  0
 26 27  2  0
 27 28  1  0
 28 29  2  0
 29 30  1  0
 30 31  2  0
 31 32  1  0
 32 33  2  0
 33 34  1  0
 34 35  2  0
 35 36  1  0
 36 37  2  0
 37 38  1  0
 38 39  2  0
 29 40  1  0
  9  4  1  0
 25 21  1  0
 40 26  1  0
 39 30  1  0
 38 33  1  0
M  CHG  2   2   1   3  -1
M  END
>  <molecule_chembl_id>  (23) 
CHEMBL4760399

>  <canonical_smiles>  (23) 
C[S+]([O-])c1ccccc1C(=O)NCCCCC(NC(=O)c1cncs1)c1ncc(-c2ccc3ccccc3c2)[nH]1

>  <pchembl_value_mean>  (23) 
4.37

>  <document_chembl_id>  (23) 
CHEMBL4725494

$$$$

     RDKit          2D

 24 27  0  0  0  0  0  0  0  0999 V2000
    5.0490   -2.0490    0.0000 O   0  0  0  0  0  0  0  0  0  0  0  0
    4.2990   -3.3481    0.0000 C   0  0  0  0  0  0  0  0  0  0  0  0
    5.0490   -4.6471    0.0000 N   0  0  0  0  0  0  0  0  0  0  0  0
    6.5490   -4.6471    0.0000 O   0  0  0  0  0  0  0  0  0  0  0  0
    2.7990   -3.3481    0.0000 C   0  0  0  0  0  0  0  0  0  0  0  0
    1.5000   -2.5981    0.0000 C   0  0  0  0  0  0  0  0  0  0  0  0
    0.7500   -1.2990    0.0000 C   0  0  0  0  0  0  0  0  0  0  0  0
    1.5000    0.0000    0.0000 C   0  0  0  0  0  0  0  0  0  0  0  0
    0.7500    1.2990    0.0000 C   0  0  0  0  0  0  0  0  0  0  0  0
   -0.7500    1.2990    0.0000 C   0  0  0  0  0  0  0  0  0  0  0  0
   -1.5000    0.0000    0.0000 C   0  0  0  0  0  0  0  0  0  0  0  0
   -0.7500   -1.2990    0.0000 C   0  0  0  0  0  0  0  0  0  0  0  0
    1.5000   -4.0981    0.0000 C   0  0  0  0  0  0  0  0  0  0  0  0
    0.7500   -5.3971    0.0000 C   0  0  0  0  0  0  0  0  0  0  0  0
   -0.7500   -5.3971    0.0000 C   0  0  0  0  0  0  0  0  0  0  0  0
   -1.5000   -6.6962    0.0000 C   0  0  0  0  0  0  0  0  0  0  0  0
   -0.7500   -7.9952    0.0000 C   0  0  0  0  0  0  0  0  0  0  0  0
   -1.5000   -9.2942    0.0000 C   0  0  0  0  0  0  0  0  0  0  0  0
   -0.8899  -10.6645    0.0000 C   0  0  0  0  0  0  0  0  0  0  0  0
   -2.0046  -11.6682    0.0000 N   0  0  0  0  0  0  0  0  0  0  0  0
   -3.3037  -10.9182    0.0000 C   0  0  0  0  0  0  0  0  0  0  0  0
   -2.9918   -9.4510    0.0000 O   0  0  0  0  0  0  0  0  0  0  0  0
    0.7500   -7.9952    0.0000 C   0  0  0  0  0  0  0  0  0  0  0  0
    1.5000   -6.6962    0.0000 C   0  0  0  0  0  0  0  0  0  0  0  0
  1  2  2  0
  2  3  1  0
  3  4  1  0
  2  5  1  0
  5  6  1  0
  6  7  1  0
  7  8  2  0
  8  9  1  0
  9 10  2  0
 10 11  1  0
 11 12  2  0
  6 13  1  0
 13 14  1  0
 14 15  2  0
 15 16  1  0
 16 17  2  0
 17 18  1  0
 18 19  2  0
 19 20  1  0
 20 21  2  0
 21 22  1  0
 17 23  1  0
 23 24  2  0
 13  5  1  0
 24 14  1  0
 12  7  1  0
 22 18  1  0
M  END
>  <molecule_chembl_id>  (24) 
CHEMBL3110021

>  <canonical_smiles>  (24) 
O=C(NO)C1C(c2ccccc2)C1c1ccc(-c2cnco2)cc1

>  <pchembl_value_mean>  (24) 
4.37

>  <document_chembl_id>  (24) 
CHEMBL3108758

$$$$

     RDKit          2D

 20 20  0  0  0  0  0  0  0  0999 V2000
   15.0000   -7.7942    0.0000 O   0  0  0  0  0  0  0  0  0  0  0  0
   14.2500   -6.4952    0.0000 C   0  0  0  0  0  0  0  0  0  0  0  0
   12.7500   -6.4952    0.0000 N   0  0  0  0  0  0  0  0  0  0  0  0
   12.0000   -7.7942    0.0000 O   0  0  0  0  0  0  0  0  0  0  0  0
   12.0000   -5.1962    0.0000 C   0  0  0  0  0  0  0  0  0  0  0  0
   10.5000   -5.1962    0.0000 C   0  0  0  0  0  0  0  0  0  0  0  0
    9.7500   -3.8971    0.0000 C   0  0  0  0  0  0  0  0  0  0  0  0
    8.2500   -3.8971    0.0000 C   0  0  0  0  0  0  0  0  0  0  0  0
    7.5000   -2.5981    0.0000 C   0  0  0  0  0  0  0  0  0  0  0  0
    6.0000   -2.5981    0.0000 N   0  0  0  0  0  0  0  0  0  0  0  0
    5.2500   -1.2990    0.0000 C   0  0  0  0  0  0  0  0  0  0  0  0
    6.0000    0.0000    0.0000 O   0  0  0  0  0  0  0  0  0  0  0  0
    3.7500   -1.2990    0.0000 C   0  0  0  0  0  0  0  0  0  0  0  0
    3.0000    0.0000    0.0000 C   0  0  0  0  0  0  0  0  0  0  0  0
    1.5000    0.0000    0.0000 C   0  0  0  0  0  0  0  0  0  0  0  0
    0.7500   -1.2990    0.0000 C   0  0  0  0  0  0  0  0  0  0  0  0
   -0.7500   -1.2990    0.0000 C   0  0  0  0  0  0  0  0  0  0  0  0
   -1.5000    0.0000    0.0000 C   0  0  0  0  0  0  0  0  0  0  0  0
   -0.7500    1.2990    0.0000 C   0  0  0  0  0  0  0  0  0  0  0  0
    0.7500    1.2990    0.0000 C   0  0  0  0  0  0  0  0  0  0  0  0
  1  2  2  0
  2  3  1  0
  3  4  1  0
  3  5  1  0
  5  6  1  0
  6  7  1  0
  7  8  1  0
  8  9  1  0
  9 10  1  0
 10 11  1  0
 11 12  2  0
 11 13  1  0
 13 14  1  0
 14 15  1  0
 15 16  2  0
 16 17  1  0
 17 18  2  0
 18 19  1  0
 19 20  2  0
 20 15  1  0
M  END
>  <molecule_chembl_id>  (25) 
CHEMBL141885

>  <canonical_smiles>  (25) 
O=CN(O)CCCCCNC(=O)CCc1ccccc1

>  <pchembl_value_mean>  (25) 
4.39

>  <document_chembl_id>  (25) 
CHEMBL1137945

$$$$

     RDKit          2D

 22 24  0  0  0  0  0  0  0  0999 V2000
   -3.0000   -7.7942    0.0000 O   0  0  0  0  0  0  0  0  0  0  0  0
   -1.5000   -7.7942    0.0000 C   0  0  0  0  0  0  0  0  0  0  0  0
   -0.7500   -6.4952    0.0000 C   0  0  0  0  0  0  0  0  0  0  0  0
   -1.5000   -5.1962    0.0000 C   0  0  0  0  0  0  0  0  0  0  0  0
   -0.7500   -3.8971    0.0000 N   0  0  0  0  0  0  0  0  0  0  0  0
    0.7500   -3.8971    0.0000 C   0  0  0  0  0  0  0  0  0  0  0  0
    1.5000   -2.5981    0.0000 C   0  0  0  0  0  0  0  0  0  0  0  0
    0.7500   -1.2990    0.0000 C   0  0  0  0  0  0  0  0  0  0  0  0
    1.5000    0.0000    0.0000 C   0  0  0  0  0  0  0  0  0  0  0  0
    0.7500    1.2990    0.0000 C   0  0  0  0  0  0  0  0  0  0  0  0
   -0.7500    1.2990    0.0000 C   0  0  0  0  0  0  0  0  0  0  0  0
   -1.5000    0.0000    0.0000 C   0  0  0  0  0  0  0  0  0  0  0  0
   -0.7500   -1.2990    0.0000 C   0  0  0  0  0  0  0  0  0  0  0  0
   -1.5000   -2.5981    0.0000 C   0  0  0  0  0  0  0  0  0  0  0  0
   -3.0000   -2.5981    0.0000 C   0  0  0  0  0  0  0  0  0  0  0  0
   -3.7500   -1.2990    0.0000 C   0  0  0  0  0  0  0  0  0  0  0  0
   -5.2500   -1.2990    0.0000 C   0  0  0  0  0  0  0  0  0  0  0  0
   -6.0000   -2.5981    0.0000 C   0  0  0  0  0  0  0  0  0  0  0  0
   -5.2500   -3.8971    0.0000 C   0  0  0  0  0  0  0  0  0  0  0  0
   -3.7500   -3.8971    0.0000 C   0  0  0  0  0  0  0  0  0  0  0  0
   -0.7500   -9.0933    0.0000 N   0  0  0  0  0  0  0  0  0  0  0  0
   -1.5000  -10.3923    0.0000 O   0  0  0  0  0  0  0  0  0  0  0  0
  1  2  2  0
  2  3  1  0
  3  4  1  0
  4  5  1  0
  5  6  1  0
  6  7  1  0
  7  8  1  0
  8  9  2  0
  9 10  1  0
 10 11  2  0
 11 12  1  0
 12 13  2  0
 13 14  1  0
 14 15  1  0
 15 16  2  0
 16 17  1  0
 17 18  2  0
 18 19  1  0
 19 20  2  0
  2 21  1  0
 21 22  1  0
 14  5  1  0
 20 15  1  0
 13  8  1  0
M  END
>  <molecule_chembl_id>  (26) 
CHEMBL4210933

>  <canonical_smiles>  (26) 
O=C(CCN1CCc2ccccc2C1c1ccccc1)NO

>  <pchembl_value_mean>  (26) 
4.4

>  <document_chembl_id>  (26) 
CHEMBL4190328

$$$$

     RDKit          2D

 31 34  0  0  0  0  0  0  0  0999 V2000
    5.4627   -4.5501    0.0000 C   0  0  0  0  0  0  0  0  0  0  0  0
    3.9955   -4.2382    0.0000 C   0  0  0  0  0  0  0  0  0  0  0  0
    2.9918   -5.3529    0.0000 N   0  0  0  0  0  0  0  0  0  0  0  0
    1.5000   -5.1962    0.0000 C   0  0  0  0  0  0  0  0  0  0  0  0
    0.7500   -3.8971    0.0000 S   0  0  0  0  0  0  0  0  0  0  0  0
    1.5000   -2.5981    0.0000 C   0  0  0  0  0  0  0  0  0  0  0  0
    0.7500   -1.2990    0.0000 C   0  0  0  0  0  0  0  0  0  0  0  0
    1.5000    0.0000    0.0000 C   0  0  0  0  0  0  0  0  0  0  0  0
    0.7500    1.2990    0.0000 C   0  0  0  0  0  0  0  0  0  0  0  0
   -0.7500    1.2990    0.0000 C   0  0  0  0  0  0  0  0  0  0  0  0
   -1.5000    2.5981    0.0000 C   0  0  0  0  0  0  0  0  0  0  0  0
   -3.0000    2.5981    0.0000 O   0  0  0  0  0  0  0  0  0  0  0  0
   -0.7500    3.8971    0.0000 N   0  0  0  0  0  0  0  0  0  0  0  0
   -1.5000    5.1962    0.0000 C   0  0  0  0  0  0  0  0  0  0  0  0
   -0.7500    6.4952    0.0000 C   0  0  0  0  0  0  0  0  0  0  0  0
   -1.5000    7.7942    0.0000 C   0  0  0  0  0  0  0  0  0  0  0  0
   -3.0000    7.7942    0.0000 C   0  0  0  0  0  0  0  0  0  0  0  0
   -3.7500    6.4952    0.0000 C   0  0  0  0  0  0  0  0  0  0  0  0
   -3.0000    5.1962    0.0000 C   0  0  0  0  0  0  0  0  0  0  0  0
   -3.7500    3.8971    0.0000 N   0  0  0  0  0  0  0  0  0  0  0  0
   -1.5000    0.0000    0.0000 C   0  0  0  0  0  0  0  0  0  0  0  0
   -0.7500   -1.2990    0.0000 C   0  0  0  0  0  0  0  0  0  0  0  0
    0.8899   -6.5665    0.0000 N   0  0  0  0  0  0  0  0  0  0  0  0
    2.0046   -7.5702    0.0000 N   0  0  0  0  0  0  0  0  0  0  0  0
    3.3037   -6.8202    0.0000 C   0  0  0  0  0  0  0  0  0  0  0  0
    4.6740   -7.4303    0.0000 C   0  0  0  0  0  0  0  0  0  0  0  0
    4.8308   -8.9221    0.0000 C   0  0  0  0  0  0  0  0  0  0  0  0
    6.2011   -9.5322    0.0000 C   0  0  0  0  0  0  0  0  0  0  0  0
    7.4146   -8.6505    0.0000 N   0  0  0  0  0  0  0  0  0  0  0  0
    7.2578   -7.1587    0.0000 C   0  0  0  0  0  0  0  0  0  0  0  0
    5.8875   -6.5486    0.0000 C   0  0  0  0  0  0  0  0  0  0  0  0
  1  2  1  0
  2  3  1  0
  3  4  1  0
  4  5  1  0
  5  6  1  0
  6  7  1  0
  7  8  2  0
  8  9  1  0
  9 10  2  0
 10 11  1  0
 11 12  2  0
 11 13  1  0
 13 14  1  0
 14 15  2  0
 15 16  1  0
 16 17  2  0
 17 18  1  0
 18 19  2  0
 19 20  1  0
 10 21  1  0
 21 22  2  0
  4 23  2  0
 23 24  1  0
 24 25  2  0
 25 26  1  0
 26 27  2  0
 27 28  1  0
 28 29  2  0
 29 30  1  0
 30 31  2  0
 25  3  1  0
 31 26  1  0
 22  7  1  0
 19 14  1  0
M  END
>  <molecule_chembl_id>  (27) 
CHEMBL4878412

>  <canonical_smiles>  (27) 
CCn1c(SCc2ccc(C(=O)Nc3ccccc3N)cc2)nnc1-c1ccncc1

>  <pchembl_value_mean>  (27) 
4.4

>  <document_chembl_id>  (27) 
CHEMBL4823270

$$$$

     RDKit          2D

 40 44  0  0  0  0  0  0  0  0999 V2000
   -4.5476  -20.6577    0.0000 C   0  0  0  0  0  0  0  0  0  0  0  0
   -4.7044  -19.1659    0.0000 O   0  0  0  0  0  0  0  0  0  0  0  0
   -6.0748  -18.5558    0.0000 C   0  0  0  0  0  0  0  0  0  0  0  0
   -7.2883  -19.4375    0.0000 C   0  0  0  0  0  0  0  0  0  0  0  0
   -8.6586  -18.8274    0.0000 C   0  0  0  0  0  0  0  0  0  0  0  0
   -8.8154  -17.3356    0.0000 C   0  0  0  0  0  0  0  0  0  0  0  0
   -7.6019  -16.4539    0.0000 C   0  0  0  0  0  0  0  0  0  0  0  0
   -7.7587  -14.9621    0.0000 F   0  0  0  0  0  0  0  0  0  0  0  0
   -6.2315  -17.0640    0.0000 C   0  0  0  0  0  0  0  0  0  0  0  0
   -5.0180  -16.1823    0.0000 C   0  0  0  0  0  0  0  0  0  0  0  0
   -3.6477  -16.7924    0.0000 O   0  0  0  0  0  0  0  0  0  0  0  0
   -5.1748  -14.6905    0.0000 N   0  0  0  0  0  0  0  0  0  0  0  0
   -3.9613  -13.8089    0.0000 C   0  0  0  0  0  0  0  0  0  0  0  0
   -4.1181  -12.3171    0.0000 C   0  0  0  0  0  0  0  0  0  0  0  0
   -2.9046  -11.4354    0.0000 C   0  0  0  0  0  0  0  0  0  0  0  0
   -3.0613   -9.9436    0.0000 C   0  0  0  0  0  0  0  0  0  0  0  0
   -1.8478   -9.0619    0.0000 C   0  0  0  0  0  0  0  0  0  0  0  0
   -0.4775   -9.6721    0.0000 N   0  0  0  0  0  0  0  0  0  0  0  0
   -0.3207  -11.1638    0.0000 C   0  0  0  0  0  0  0  0  0  0  0  0
   -1.5342  -12.0455    0.0000 O   0  0  0  0  0  0  0  0  0  0  0  0
    1.0496  -11.7739    0.0000 C   0  0  0  0  0  0  0  0  0  0  0  0
    2.3486  -11.0239    0.0000 C   0  0  0  0  0  0  0  0  0  0  0  0
    3.4634  -12.0276    0.0000 N   0  0  0  0  0  0  0  0  0  0  0  0
    2.8533  -13.3980    0.0000 C   0  0  0  0  0  0  0  0  0  0  0  0
    1.3615  -13.2412    0.0000 S   0  0  0  0  0  0  0  0  0  0  0  0
   -2.0046   -7.5702    0.0000 C   0  0  0  0  0  0  0  0  0  0  0  0
   -3.3037   -6.8202    0.0000 N   0  0  0  0  0  0  0  0  0  0  0  0
   -2.9918   -5.3529    0.0000 C   0  0  0  0  0  0  0  0  0  0  0  0
   -1.5000   -5.1962    0.0000 C   0  0  0  0  0  0  0  0  0  0  0  0
   -0.7500   -3.8971    0.0000 C   0  0  0  0  0  0  0  0  0  0  0  0
    0.7500   -3.8971    0.0000 C   0  0  0  0  0  0  0  0  0  0  0  0
    1.5000   -2.5981    0.0000 C   0  0  0  0  0  0  0  0  0  0  0  0
    0.7500   -1.2990    0.0000 C   0  0  0  0  0  0  0  0  0  0  0  0
    1.5000    0.0000    0.0000 C   0  0  0  0  0  0  0  0  0  0  0  0
    0.7500    1.2990    0.0000 C   0  0  0  0  0  0  0  0  0  0  0  0
   -0.7500    1.2990    0.0000 C   0  0  0  0  0  0  0  0  0  0  0  0
   -1.5000    0.0000    0.0000 C   0  0  0  0  0  0  0  0  0  0  0  0
   -0.7500   -1.2990    0.0000 C   0  0  0  0  0  0  0  0  0  0  0  0
   -1.5000   -2.5981    0.0000 C   0  0  0  0  0  0  0  0  0  0  0  0
   -0.8899   -6.5665    0.0000 N   0  0  0  0  0  0  0  0  0  0  0  0
  1  2  1  0
  2  3  1  0
  3  4  2  0
  4  5  1  0
  5  6  2  0
  6  7  1  0
  7  8  1  0
  7  9  2  0
  9 10  1  0
 10 11  2  0
 10 12  1  0
 12 13  1  0
 13 14  1  0
 14 15  1  0
 15 16  1  0
 16 17  1  0
 17 18  1  0
 18 19  1  0
 19 20  2  0
 19 21  1  0
 21 22  2  0
 22 23  1  0
 23 24  2  0
 24 25  1  0
 17 26  1  0
 26 27  2  0
 27 28  1  0
 28 29  2  0
 29 30  1  0
 30 31  2  0
 31 32  1  0
 32 33  2  0
 33 34  1  0
 34 35  2  0
 35 36  1  0
 36 37  2  0
 37 38  1  0
 38 39  2  0
 29 40  1  0
  9  3  1  0
 25 21  1  0
 40 26  1  0
 39 30  1  0
 38 33  1  0
M  END
>  <molecule_chembl_id>  (28) 
CHEMBL4791367

>  <canonical_smiles>  (28) 
COc1cccc(F)c1C(=O)NCCCCC(NC(=O)c1cncs1)c1ncc(-c2ccc3ccccc3c2)[nH]1

>  <pchembl_value_mean>  (28) 
4.4

>  <document_chembl_id>  (28) 
CHEMBL4725494

$$$$

     RDKit          2D

 26 27  0  0  0  0  0  0  0  0999 V2000
    3.0000  -12.9904    0.0000 O   0  0  0  0  0  0  0  0  0  0  0  0
    1.5000  -12.9904    0.0000 C   0  0  0  0  0  0  0  0  0  0  0  0
    0.7500  -11.6913    0.0000 C   0  0  0  0  0  0  0  0  0  0  0  0
    1.5000  -10.3923    0.0000 C   0  0  0  0  0  0  0  0  0  0  0  0
    0.7500   -9.0933    0.0000 C   0  0  0  0  0  0  0  0  0  0  0  0
    1.5000   -7.7942    0.0000 C   0  0  0  0  0  0  0  0  0  0  0  0
    0.7500   -6.4952    0.0000 C   0  0  0  0  0  0  0  0  0  0  0  0
    1.5000   -5.1962    0.0000 C   0  0  0  0  0  0  0  0  0  0  0  0
    0.7500   -3.8971    0.0000 C   0  0  0  0  0  0  0  0  0  0  0  0
   -0.7500   -3.8971    0.0000 O   0  0  0  0  0  0  0  0  0  0  0  0
    1.5000   -2.5981    0.0000 N   0  0  0  0  0  0  0  0  0  0  0  0
    0.7500   -1.2990    0.0000 C   0  0  0  0  0  0  0  0  0  0  0  0
    1.5000    0.0000    0.0000 C   0  0  0  0  0  0  0  0  0  0  0  0
    0.7500    1.2990    0.0000 C   0  0  0  0  0  0  0  0  0  0  0  0
   -0.7500    1.2990    0.0000 C   0  0  0  0  0  0  0  0  0  0  0  0
   -1.5000    0.0000    0.0000 C   0  0  0  0  0  0  0  0  0  0  0  0
   -0.7500   -1.2990    0.0000 C   0  0  0  0  0  0  0  0  0  0  0  0
   -0.7500   -9.0933    0.0000 C   0  0  0  0  0  0  0  0  0  0  0  0
   -1.5000  -10.3923    0.0000 C   0  0  0  0  0  0  0  0  0  0  0  0
   -3.0000  -10.3923    0.0000 C   0  0  0  0  0  0  0  0  0  0  0  0
   -3.7500  -11.6913    0.0000 C   0  0  0  0  0  0  0  0  0  0  0  0
   -3.0000  -12.9904    0.0000 C   0  0  0  0  0  0  0  0  0  0  0  0
   -1.5000  -12.9904    0.0000 C   0  0  0  0  0  0  0  0  0  0  0  0
   -0.7500  -11.6913    0.0000 C   0  0  0  0  0  0  0  0  0  0  0  0
    0.7500  -14.2894    0.0000 N   0  0  0  0  0  0  0  0  0  0  0  0
    1.5000  -15.5885    0.0000 O   0  0  0  0  0  0  0  0  0  0  0  0
  1  2  2  0
  2  3  1  0
  3  4  1  0
  4  5  1  0
  5  6  1  0
  6  7  1  0
  7  8  1  0
  8  9  1  0
  9 10  2  0
  9 11  1  0
 11 12  1  0
 12 13  2  0
 13 14  1  0
 14 15  2  0
 15 16  1  0
 16 17  2  0
  5 18  1  0
 18 19  1  0
 19 20  2  0
 20 21  1  0
 21 22  2  0
 22 23  1  0
 23 24  2  0
  2 25  1  0
 25 26  1  0
 17 12  1  0
 24 19  1  0
M  END
>  <molecule_chembl_id>  (29) 
CHEMBL4284448

>  <canonical_smiles>  (29) 
O=C(CCC(CCCC(=O)Nc1ccccc1)Cc1ccccc1)NO

>  <pchembl_value_mean>  (29) 
4.41

>  <document_chembl_id>  (29) 
CHEMBL4251567

$$$$

     RDKit          2D

 21 23  0  0  0  0  0  0  0  0999 V2000
   -2.6401   -3.1891    0.0000 O   0  0  0  0  0  0  0  0  0  0  0  0
   -1.2135   -2.7256    0.0000 C   0  0  0  0  0  0  0  0  0  0  0  0
   -0.0000   -3.6073    0.0000 C   0  0  0  0  0  0  0  0  0  0  0  0
   -0.0000   -5.1073    0.0000 C   0  0  0  0  0  0  0  0  0  0  0  0
   -1.2990   -5.8573    0.0000 C   0  0  0  0  0  0  0  0  0  0  0  0
   -2.5981   -5.1073    0.0000 C   0  0  0  0  0  0  0  0  0  0  0  0
   -3.8971   -5.8573    0.0000 C   0  0  0  0  0  0  0  0  0  0  0  0
   -3.8971   -7.3573    0.0000 C   0  0  0  0  0  0  0  0  0  0  0  0
   -5.1962   -8.1073    0.0000 O   0  0  0  0  0  0  0  0  0  0  0  0
   -2.5981   -8.1073    0.0000 C   0  0  0  0  0  0  0  0  0  0  0  0
   -2.5981   -9.6073    0.0000 O   0  0  0  0  0  0  0  0  0  0  0  0
   -1.2990   -7.3573    0.0000 C   0  0  0  0  0  0  0  0  0  0  0  0
    1.2135   -2.7256    0.0000 O   0  0  0  0  0  0  0  0  0  0  0  0
    0.7500   -1.2990    0.0000 C   0  0  0  0  0  0  0  0  0  0  0  0
    1.5000    0.0000    0.0000 C   0  0  0  0  0  0  0  0  0  0  0  0
    0.7500    1.2990    0.0000 C   0  0  0  0  0  0  0  0  0  0  0  0
    1.5000    2.5981    0.0000 O   0  0  0  0  0  0  0  0  0  0  0  0
   -0.7500    1.2990    0.0000 C   0  0  0  0  0  0  0  0  0  0  0  0
   -1.5000    0.0000    0.0000 C   0  0  0  0  0  0  0  0  0  0  0  0
   -3.0000    0.0000    0.0000 O   0  0  0  0  0  0  0  0  0  0  0  0
   -0.7500   -1.2990    0.0000 C   0  0  0  0  0  0  0  0  0  0  0  0
  1  2  2  0
  2  3  1  0
  3  4  2  3
  4  5  1  0
  5  6  2  0
  6  7  1  0
  7  8  2  0
  8  9  1  0
  8 10  1  0
 10 11  1  0
 10 12  2  0
  3 13  1  0
 13 14  1  0
 14 15  2  0
 15 16  1  0
 16 17  1  0
 16 18  2  0
 18 19  1  0
 19 20  1  0
 19 21  2  0
 21  2  1  0
 12  5  1  0
 21 14  1  0
M  END
>  <molecule_chembl_id>  (30) 
CHEMBL593229

>  <canonical_smiles>  (30) 
O=C1C(=Cc2ccc(O)c(O)c2)Oc2cc(O)cc(O)c21

>  <pchembl_value_mean>  (30) 
4.41

>  <document_chembl_id>  (30) 
CHEMBL3352210

$$$$

     RDKit          2D

 33 36  0  0  0  0  0  0  0  0999 V2000
    3.0000    0.0000    0.0000 N   0  0  0  0  0  0  0  0  0  0  0  0
    1.5000    0.0000    0.0000 C   0  0  0  0  0  0  0  0  0  0  0  0
    0.7500   -1.2990    0.0000 C   0  0  0  0  0  0  0  0  0  0  0  0
   -0.7500   -1.2990    0.0000 C   0  0  0  0  0  0  0  0  0  0  0  0
   -1.5000    0.0000    0.0000 C   0  0  0  0  0  0  0  0  0  0  0  0
   -0.7500    1.2990    0.0000 C   0  0  0  0  0  0  0  0  0  0  0  0
    0.7500    1.2990    0.0000 C   0  0  0  0  0  0  0  0  0  0  0  0
    1.5000    2.5981    0.0000 N   0  0  0  0  0  0  0  0  0  0  0  0
    0.7500    3.8971    0.0000 C   0  0  0  0  0  0  0  0  0  0  0  0
   -0.7500    3.8971    0.0000 O   0  0  0  0  0  0  0  0  0  0  0  0
    1.5000    5.1962    0.0000 C   0  0  0  0  0  0  0  0  0  0  0  0
    0.7500    6.4952    0.0000 C   0  0  0  0  0  0  0  0  0  0  0  0
    1.5000    7.7942    0.0000 C   0  0  0  0  0  0  0  0  0  0  0  0
    0.7500    9.0933    0.0000 C   0  0  0  0  0  0  0  0  0  0  0  0
    1.5000   10.3923    0.0000 C   0  0  0  0  0  0  0  0  0  0  0  0
    0.7500   11.6913    0.0000 S   0  0  0  0  0  0  0  0  0  0  0  0
    1.5000   12.9904    0.0000 C   0  0  0  0  0  0  0  0  0  0  0  0
    0.8899   14.3607    0.0000 N   0  0  0  0  0  0  0  0  0  0  0  0
    2.0046   15.3644    0.0000 N   0  0  0  0  0  0  0  0  0  0  0  0
    3.3037   14.6144    0.0000 C   0  0  0  0  0  0  0  0  0  0  0  0
    4.6740   15.2245    0.0000 C   0  0  0  0  0  0  0  0  0  0  0  0
    5.8875   14.3428    0.0000 C   0  0  0  0  0  0  0  0  0  0  0  0
    7.2578   14.9529    0.0000 C   0  0  0  0  0  0  0  0  0  0  0  0
    7.4146   16.4447    0.0000 N   0  0  0  0  0  0  0  0  0  0  0  0
    6.2011   17.3264    0.0000 C   0  0  0  0  0  0  0  0  0  0  0  0
    4.8308   16.7163    0.0000 C   0  0  0  0  0  0  0  0  0  0  0  0
    2.9918   13.1472    0.0000 N   0  0  0  0  0  0  0  0  0  0  0  0
    3.9955   12.0325    0.0000 C   0  0  0  0  0  0  0  0  0  0  0  0
    3.5320   10.6059    0.0000 C   0  0  0  0  0  0  0  0  0  0  0  0
    4.5356    9.4912    0.0000 C   0  0  0  0  0  0  0  0  0  0  0  0
    6.0029    9.8030    0.0000 C   0  0  0  0  0  0  0  0  0  0  0  0
    6.4664   11.2296    0.0000 C   0  0  0  0  0  0  0  0  0  0  0  0
    5.4627   12.3443    0.0000 C   0  0  0  0  0  0  0  0  0  0  0  0
  1  2  1  0
  2  3  2  0
  3  4  1  0
  4  5  2  0
  5  6  1  0
  6  7  2  0
  7  8  1  0
  8  9  1  0
  9 10  2  0
  9 11  1  0
 11 12  1  0
 12 13  1  0
 13 14  1  0
 14 15  1  0
 15 16  1  0
 16 17  1  0
 17 18  2  0
 18 19  1  0
 19 20  2  0
 20 21  1  0
 21 22  2  0
 22 23  1  0
 23 24  2  0
 24 25  1  0
 25 26  2  0
 20 27  1  0
 27 28  1  0
 28 29  2  0
 29 30  1  0
 30 31  2  0
 31 32  1  0
 32 33  2  0
  7  2  1  0
 27 17  1  0
 33 28  1  0
 26 21  1  0
M  END
>  <molecule_chembl_id>  (31) 
CHEMBL4874564

>  <canonical_smiles>  (31) 
Nc1ccccc1NC(=O)CCCCCSc1nnc(-c2ccncc2)n1-c1ccccc1

>  <pchembl_value_mean>  (31) 
4.41

>  <document_chembl_id>  (31) 
CHEMBL4823270

$$$$

     RDKit          2D

 25 25  0  0  0  0  0  0  0  0999 V2000
   15.0000   -7.7942    0.0000 C   0  0  0  0  0  0  0  0  0  0  0  0
   14.2500   -6.4952    0.0000 C   0  0  0  0  0  0  0  0  0  0  0  0
   12.7500   -6.4952    0.0000 C   0  0  0  0  0  0  0  0  0  0  0  0
   12.0000   -5.1962    0.0000 C   0  0  0  0  0  0  0  0  0  0  0  0
   10.5000   -5.1962    0.0000 C   0  0  0  0  0  0  0  0  0  0  0  0
    9.7500   -3.8971    0.0000 C   0  0  0  0  0  0  0  0  0  0  0  0
    8.2500   -3.8971    0.0000 C   0  0  0  0  0  0  0  0  0  0  0  0
    7.5000   -2.5981    0.0000 C   0  0  0  0  0  0  0  0  0  0  0  0
    6.0000   -2.5981    0.0000 C   0  0  0  0  0  0  0  0  0  0  0  0
    5.2500   -1.2990    0.0000 C   0  0  0  0  0  0  0  0  0  0  0  0
    3.7500   -1.2990    0.0000 C   0  0  0  0  0  0  0  0  0  0  0  0
    3.0000   -2.5981    0.0000 O   0  0  0  0  0  0  0  0  0  0  0  0
    3.0000    0.0000    0.0000 N   0  0  0  0  0  0  0  0  0  0  0  0
    1.5000    0.0000    0.0000 C   0  0  0  0  0  0  0  0  0  0  0  0
    0.7500   -1.2990    0.0000 C   0  0  0  0  0  0  0  0  0  0  0  0
   -0.7500   -1.2990    0.0000 C   0  0  0  0  0  0  0  0  0  0  0  0
   -1.5000    0.0000    0.0000 C   0  0  0  0  0  0  0  0  0  0  0  0
   -0.7500    1.2990    0.0000 C   0  0  0  0  0  0  0  0  0  0  0  0
    0.7500    1.2990    0.0000 C   0  0  0  0  0  0  0  0  0  0  0  0
    7.5000   -5.1962    0.0000 C   0  0  0  0  0  0  0  0  0  0  0  0
    8.2500   -6.4952    0.0000 C   0  0  0  0  0  0  0  0  0  0  0  0
    7.5000   -7.7942    0.0000 C   0  0  0  0  0  0  0  0  0  0  0  0
    6.0000   -7.7942    0.0000 O   0  0  0  0  0  0  0  0  0  0  0  0
    8.2500   -9.0933    0.0000 N   0  0  0  0  0  0  0  0  0  0  0  0
    7.5000  -10.3923    0.0000 O   0  0  0  0  0  0  0  0  0  0  0  0
  1  2  1  0
  2  3  1  0
  3  4  1  0
  4  5  1  0
  5  6  1  0
  6  7  1  0
  7  8  1  0
  8  9  1  0
  9 10  1  0
 10 11  1  0
 11 12  2  0
 11 13  1  0
 13 14  1  0
 14 15  2  0
 15 16  1  0
 16 17  2  0
 17 18  1  0
 18 19  2  0
  7 20  1  0
 20 21  1  0
 21 22  1  0
 22 23  2  0
 22 24  1  0
 24 25  1  0
 19 14  1  0
M  END
>  <molecule_chembl_id>  (32) 
CHEMBL4277951

>  <canonical_smiles>  (32) 
CCCCCCC(CCCC(=O)Nc1ccccc1)CCC(=O)NO

>  <pchembl_value_mean>  (32) 
4.42

>  <document_chembl_id>  (32) 
CHEMBL4251567

$$$$

     RDKit          2D

 26 27  0  0  0  0  0  0  0  0999 V2000
    3.0000    0.0000    0.0000 N   0  0  0  0  0  0  0  0  0  0  0  0
    1.5000    0.0000    0.0000 C   0  0  0  0  0  0  0  0  0  0  0  0
    0.7500   -1.2990    0.0000 C   0  0  0  0  0  0  0  0  0  0  0  0
   -0.7500   -1.2990    0.0000 C   0  0  0  0  0  0  0  0  0  0  0  0
   -1.5000    0.0000    0.0000 C   0  0  0  0  0  0  0  0  0  0  0  0
   -0.7500    1.2990    0.0000 C   0  0  0  0  0  0  0  0  0  0  0  0
    0.7500    1.2990    0.0000 C   0  0  0  0  0  0  0  0  0  0  0  0
    1.5000    2.5981    0.0000 N   0  0  0  0  0  0  0  0  0  0  0  0
    0.7500    3.8971    0.0000 C   0  0  0  0  0  0  0  0  0  0  0  0
   -0.7500    3.8971    0.0000 O   0  0  0  0  0  0  0  0  0  0  0  0
    1.5000    5.1962    0.0000 C   0  0  0  0  0  0  0  0  0  0  0  0
    0.7500    6.4952    0.0000 C   0  0  0  0  0  0  0  0  0  0  0  0
    1.5000    7.7942    0.0000 C   0  0  0  0  0  0  0  0  0  0  0  0
    0.7500    9.0933    0.0000 C   0  0  0  0  0  0  0  0  0  0  0  0
    1.5000   10.3923    0.0000 C   0  0  0  0  0  0  0  0  0  0  0  0
    0.7500   11.6913    0.0000 C   0  0  0  0  0  0  0  0  0  0  0  0
   -0.7500   11.6913    0.0000 C   0  0  0  0  0  0  0  0  0  0  0  0
   -1.5000   12.9904    0.0000 N   0  0  0  0  0  0  0  0  0  0  0  0
   -0.7500   14.2894    0.0000 C   0  0  0  0  0  0  0  0  0  0  0  0
   -1.5000   15.5885    0.0000 C   0  0  0  0  0  0  0  0  0  0  0  0
   -0.7500   16.8875    0.0000 Cl  0  0  0  0  0  0  0  0  0  0  0  0
   -3.0000   12.9904    0.0000 C   0  0  0  0  0  0  0  0  0  0  0  0
   -3.7500   14.2894    0.0000 C   0  0  0  0  0  0  0  0  0  0  0  0
   -5.2500   14.2894    0.0000 Cl  0  0  0  0  0  0  0  0  0  0  0  0
   -1.5000   10.3923    0.0000 C   0  0  0  0  0  0  0  0  0  0  0  0
   -0.7500    9.0933    0.0000 C   0  0  0  0  0  0  0  0  0  0  0  0
  1  2  1  0
  2  3  2  0
  3  4  1  0
  4  5  2  0
  5  6  1  0
  6  7  2  0
  7  8  1  0
  8  9  1  0
  9 10  2  0
  9 11  1  0
 11 12  1  0
 12 13  1  0
 13 14  1  0
 14 15  2  0
 15 16  1  0
 16 17  2  0
 17 18  1  0
 18 19  1  0
 19 20  1  0
 20 21  1  0
 18 22  1  0
 22 23  1  0
 23 24  1  0
 17 25  1  0
 25 26  2  0
  7  2  1  0
 26 14  1  0
M  END
>  <molecule_chembl_id>  (33) 
CHEMBL4173739

>  <canonical_smiles>  (33) 
Nc1ccccc1NC(=O)CCCc1ccc(N(CCCl)CCCl)cc1

>  <pchembl_value_mean>  (33) 
4.48

>  <document_chembl_id>  (33) 
CHEMBL4257470

$$$$

     RDKit          2D

 29 31  0  0  0  0  0  0  0  0999 V2000
    3.7500   -1.2990    0.0000 C   0  0  0  0  0  0  0  0  0  0  0  0
    3.0000    0.0000    0.0000 O   0  0  0  0  0  0  0  0  0  0  0  0
    1.5000    0.0000    0.0000 C   0  0  0  0  0  0  0  0  0  0  0  0
    0.7500   -1.2990    0.0000 C   0  0  0  0  0  0  0  0  0  0  0  0
   -0.7500   -1.2990    0.0000 C   0  0  0  0  0  0  0  0  0  0  0  0
   -1.5000    0.0000    0.0000 C   0  0  0  0  0  0  0  0  0  0  0  0
   -3.0000    0.0000    0.0000 C   0  0  0  0  0  0  0  0  0  0  0  0
   -3.7500    1.2990    0.0000 C   0  0  0  0  0  0  0  0  0  0  0  0
   -5.2500    1.2990    0.0000 C   0  0  0  0  0  0  0  0  0  0  0  0
   -6.0000    0.0000    0.0000 O   0  0  0  0  0  0  0  0  0  0  0  0
   -6.0000    2.5981    0.0000 C   0  0  0  0  0  0  0  0  0  0  0  0
   -7.5000    2.5981    0.0000 C   0  0  0  0  0  0  0  0  0  0  0  0
   -8.2500    3.8971    0.0000 C   0  0  0  0  0  0  0  0  0  0  0  0
   -9.7500    3.8971    0.0000 C   0  0  0  0  0  0  0  0  0  0  0  0
  -10.5000    5.1962    0.0000 C   0  0  0  0  0  0  0  0  0  0  0  0
   -9.7500    6.4952    0.0000 C   0  0  0  0  0  0  0  0  0  0  0  0
  -10.5000    7.7942    0.0000 C   0  0  0  0  0  0  0  0  0  0  0  0
  -12.0000    7.7942    0.0000 C   0  0  0  0  0  0  0  0  0  0  0  0
  -12.7500    9.0933    0.0000 O   0  0  0  0  0  0  0  0  0  0  0  0
  -12.0000   10.3923    0.0000 C   0  0  0  0  0  0  0  0  0  0  0  0
  -12.7500    6.4952    0.0000 C   0  0  0  0  0  0  0  0  0  0  0  0
  -14.2500    6.4952    0.0000 O   0  0  0  0  0  0  0  0  0  0  0  0
  -15.0000    5.1962    0.0000 C   0  0  0  0  0  0  0  0  0  0  0  0
  -12.0000    5.1962    0.0000 C   0  0  0  0  0  0  0  0  0  0  0  0
   -3.0000    2.5981    0.0000 C   0  0  0  0  0  0  0  0  0  0  0  0
   -3.7500    3.8971    0.0000 O   0  0  0  0  0  0  0  0  0  0  0  0
   -1.5000    2.5981    0.0000 O   0  0  0  0  0  0  0  0  0  0  0  0
   -0.7500    1.2990    0.0000 C   0  0  0  0  0  0  0  0  0  0  0  0
    0.7500    1.2990    0.0000 C   0  0  0  0  0  0  0  0  0  0  0  0
  1  2  1  0
  2  3  1  0
  3  4  2  0
  4  5  1  0
  5  6  2  0
  6  7  1  0
  7  8  2  0
  8  9  1  0
  9 10  2  0
  9 11  1  0
 11 12  2  3
 12 13  1  0
 13 14  2  3
 14 15  1  0
 15 16  2  0
 16 17  1  0
 17 18  2  0
 18 19  1  0
 19 20  1  0
 18 21  1  0
 21 22  1  0
 22 23  1  0
 21 24  2  0
  8 25  1  0
 25 26  2  0
 25 27  1  0
 27 28  1  0
 28 29  2  0
 29  3  1  0
 28  6  1  0
 24 15  1  0
M  END
>  <molecule_chembl_id>  (34) 
CHEMBL3318732

>  <canonical_smiles>  (34) 
COc1ccc2cc(C(=O)C=CC=Cc3ccc(OC)c(OC)c3)c(=O)oc2c1

>  <pchembl_value_mean>  (34) 
4.48

>  <document_chembl_id>  (34) 
CHEMBL3351243

$$$$

     RDKit          2D

 28 29  0  0  0  0  0  0  0  0999 V2000
   12.4663  -16.8334    0.0000 C   0  0  0  0  0  0  0  0  0  0  0  0
   12.3095  -15.3416    0.0000 N   0  0  0  0  0  0  0  0  0  0  0  0
   10.9392  -14.7315    0.0000 C   0  0  0  0  0  0  0  0  0  0  0  0
    9.7257  -15.6132    0.0000 O   0  0  0  0  0  0  0  0  0  0  0  0
   10.7824  -13.2397    0.0000 C   0  0  0  0  0  0  0  0  0  0  0  0
    9.4121  -12.6296    0.0000 C   0  0  0  0  0  0  0  0  0  0  0  0
    9.2553  -11.1379    0.0000 C   0  0  0  0  0  0  0  0  0  0  0  0
    7.8850  -10.5278    0.0000 C   0  0  0  0  0  0  0  0  0  0  0  0
    7.7282   -9.0360    0.0000 C   0  0  0  0  0  0  0  0  0  0  0  0
    6.3579   -8.4259    0.0000 C   0  0  0  0  0  0  0  0  0  0  0  0
    6.2011   -6.9341    0.0000 C   0  0  0  0  0  0  0  0  0  0  0  0
    4.8308   -6.3240    0.0000 N   0  0  0  0  0  0  0  0  0  0  0  0
    4.6740   -4.8322    0.0000 C   0  0  0  0  0  0  0  0  0  0  0  0
    5.8875   -3.9505    0.0000 O   0  0  0  0  0  0  0  0  0  0  0  0
    3.3037   -4.2221    0.0000 C   0  0  0  0  0  0  0  0  0  0  0  0
    2.9918   -2.7549    0.0000 C   0  0  0  0  0  0  0  0  0  0  0  0
    1.5000   -2.5981    0.0000 C   0  0  0  0  0  0  0  0  0  0  0  0
    0.7500   -1.2990    0.0000 C   0  0  0  0  0  0  0  0  0  0  0  0
    1.5000    0.0000    0.0000 C   0  0  0  0  0  0  0  0  0  0  0  0
    0.7500    1.2990    0.0000 C   0  0  0  0  0  0  0  0  0  0  0  0
   -0.7500    1.2990    0.0000 C   0  0  0  0  0  0  0  0  0  0  0  0
   -1.5000    0.0000    0.0000 C   0  0  0  0  0  0  0  0  0  0  0  0
   -3.0000    0.0000    0.0000 N   0  0  0  0  0  0  0  0  0  0  0  0
   -0.7500   -1.2990    0.0000 C   0  0  0  0  0  0  0  0  0  0  0  0
    0.8899   -3.9684    0.0000 O   0  0  0  0  0  0  0  0  0  0  0  0
    2.0046   -4.9721    0.0000 N   0  0  0  0  0  0  0  0  0  0  0  0
   11.9959  -12.3581    0.0000 N   0  0  0  0  0  0  0  0  0  0  0  0
   13.3663  -12.9682    0.0000 O   0  0  0  0  0  0  0  0  0  0  0  0
  1  2  1  0
  2  3  1  0
  3  4  2  0
  3  5  1  0
  5  6  1  0
  6  7  1  0
  7  8  1  0
  8  9  1  0
  9 10  1  0
 10 11  1  0
 11 12  1  0
 12 13  1  0
 13 14  2  0
 13 15  1  0
 15 16  1  0
 16 17  2  0
 17 18  1  0
 18 19  2  0
 19 20  1  0
 20 21  2  0
 21 22  1  0
 22 23  1  0
 22 24  2  0
 17 25  1  0
 25 26  1  0
  5 27  2  3
 27 28  1  0
 26 15  2  0
 24 18  1  0
M  END
>  <molecule_chembl_id>  (35) 
CHEMBL1767043

>  <canonical_smiles>  (35) 
CNC(=O)C(CCCCCCNC(=O)c1cc(-c2cccc(N)c2)on1)=NO

>  <pchembl_value_mean>  (35) 
4.48

>  <document_chembl_id>  (35) 
CHEMBL1765034

$$$$

     RDKit          2D

 27 29  0  0  0  0  0  0  0  0999 V2000
   -1.5200  -13.6512    0.0000 O   0  0  0  0  0  0  0  0  0  0  0  0
   -2.7335  -12.7695    0.0000 C   0  0  0  0  0  0  0  0  0  0  0  0
   -2.5767  -11.2778    0.0000 C   0  0  0  0  0  0  0  0  0  0  0  0
   -1.2064  -10.6676    0.0000 C   0  0  0  0  0  0  0  0  0  0  0  0
   -1.0496   -9.1759    0.0000 C   0  0  0  0  0  0  0  0  0  0  0  0
    0.3207   -8.5658    0.0000 C   0  0  0  0  0  0  0  0  0  0  0  0
    0.4775   -7.0740    0.0000 C   0  0  0  0  0  0  0  0  0  0  0  0
    1.8478   -6.4639    0.0000 S   0  0  0  0  0  0  0  0  0  0  0  0
    2.0046   -4.9721    0.0000 C   0  0  0  0  0  0  0  0  0  0  0  0
    3.3037   -4.2221    0.0000 N   0  0  0  0  0  0  0  0  0  0  0  0
    2.9918   -2.7549    0.0000 N   0  0  0  0  0  0  0  0  0  0  0  0
    1.5000   -2.5981    0.0000 C   0  0  0  0  0  0  0  0  0  0  0  0
    0.7500   -1.2990    0.0000 C   0  0  0  0  0  0  0  0  0  0  0  0
    1.5000    0.0000    0.0000 C   0  0  0  0  0  0  0  0  0  0  0  0
    0.7500    1.2990    0.0000 C   0  0  0  0  0  0  0  0  0  0  0  0
   -0.7500    1.2990    0.0000 N   0  0  0  0  0  0  0  0  0  0  0  0
   -1.5000    0.0000    0.0000 C   0  0  0  0  0  0  0  0  0  0  0  0
   -0.7500   -1.2990    0.0000 C   0  0  0  0  0  0  0  0  0  0  0  0
    0.8899   -3.9684    0.0000 N   0  0  0  0  0  0  0  0  0  0  0  0
   -0.5773   -4.2803    0.0000 C   0  0  0  0  0  0  0  0  0  0  0  0
   -1.5810   -3.1655    0.0000 C   0  0  0  0  0  0  0  0  0  0  0  0
   -3.0482   -3.4774    0.0000 C   0  0  0  0  0  0  0  0  0  0  0  0
   -3.5118   -4.9040    0.0000 C   0  0  0  0  0  0  0  0  0  0  0  0
   -2.5081   -6.0187    0.0000 C   0  0  0  0  0  0  0  0  0  0  0  0
   -1.0409   -5.7068    0.0000 C   0  0  0  0  0  0  0  0  0  0  0  0
   -4.1038  -13.3796    0.0000 N   0  0  0  0  0  0  0  0  0  0  0  0
   -4.2606  -14.8714    0.0000 O   0  0  0  0  0  0  0  0  0  0  0  0
  1  2  2  0
  2  3  1  0
  3  4  1  0
  4  5  1  0
  5  6  1  0
  6  7  1  0
  7  8  1  0
  8  9  1  0
  9 10  2  0
 10 11  1  0
 11 12  2  0
 12 13  1  0
 13 14  2  0
 14 15  1  0
 15 16  2  0
 16 17  1  0
 17 18  2  0
 12 19  1  0
 19 20  1  0
 20 21  2  0
 21 22  1  0
 22 23  2  0
 23 24  1  0
 24 25  2  0
  2 26  1  0
 26 27  1  0
 19  9  1  0
 25 20  1  0
 18 13  1  0
M  END
>  <molecule_chembl_id>  (36) 
CHEMBL4874813

>  <canonical_smiles>  (36) 
O=C(CCCCCSc1nnc(-c2ccncc2)n1-c1ccccc1)NO

>  <pchembl_value_mean>  (36) 
4.49

>  <document_chembl_id>  (36) 
CHEMBL4823270

$$$$

     RDKit          2D

 15 17  0  0  0  0  0  0  0  0999 V2000
    1.5000   -5.1962    0.0000 N   0  0  0  0  0  0  0  0  0  0  0  0
    0.7500   -3.8971    0.0000 C   0  0  0  0  0  0  0  0  0  0  0  0
    1.5000   -2.5981    0.0000 S   0  0  0  0  0  0  0  0  0  0  0  0
    0.7500   -1.2990    0.0000 C   0  0  0  0  0  0  0  0  0  0  0  0
    1.5000    0.0000    0.0000 C   0  0  0  0  0  0  0  0  0  0  0  0
    0.7500    1.2990    0.0000 C   0  0  0  0  0  0  0  0  0  0  0  0
   -0.7500    1.2990    0.0000 C   0  0  0  0  0  0  0  0  0  0  0  0
   -1.5000    0.0000    0.0000 C   0  0  0  0  0  0  0  0  0  0  0  0
   -0.7500   -1.2990    0.0000 C   0  0  0  0  0  0  0  0  0  0  0  0
   -1.5000   -2.5981    0.0000 C   0  0  0  0  0  0  0  0  0  0  0  0
   -3.0000   -2.5981    0.0000 N   0  0  0  0  0  0  0  0  0  0  0  0
   -3.7500   -3.8971    0.0000 C   0  0  0  0  0  0  0  0  0  0  0  0
   -3.0000   -5.1962    0.0000 C   0  0  0  0  0  0  0  0  0  0  0  0
   -1.5000   -5.1962    0.0000 C   0  0  0  0  0  0  0  0  0  0  0  0
   -0.7500   -3.8971    0.0000 N   0  0  0  0  0  0  0  0  0  0  0  0
  1  2  2  0
  2  3  1  0
  3  4  1  0
  4  5  2  0
  5  6  1  0
  6  7  2  0
  7  8  1  0
  8  9  2  0
  9 10  1  0
 10 11  2  0
 11 12  1  0
 12 13  1  0
 13 14  1  0
 14 15  1  0
 15  2  1  0
  9  4  1  0
 15 10  1  0
M  END
>  <molecule_chembl_id>  (37) 
CHEMBL595227

>  <canonical_smiles>  (37) 
N=C1Sc2ccccc2C2=NCCCN12

>  <pchembl_value_mean>  (37) 
4.5

>  <document_chembl_id>  (37) 
CHEMBL4765362

$$$$

     RDKit          2D

 39 43  0  0  0  0  0  0  0  0999 V2000
   -4.5476  -20.6577    0.0000 C   0  0  0  0  0  0  0  0  0  0  0  0
   -4.7044  -19.1659    0.0000 S   0  0  0  0  0  0  0  0  0  0  0  0
   -6.0748  -18.5558    0.0000 C   0  0  0  0  0  0  0  0  0  0  0  0
   -7.2883  -19.4375    0.0000 C   0  0  0  0  0  0  0  0  0  0  0  0
   -8.6586  -18.8274    0.0000 C   0  0  0  0  0  0  0  0  0  0  0  0
   -8.8154  -17.3356    0.0000 C   0  0  0  0  0  0  0  0  0  0  0  0
   -7.6019  -16.4539    0.0000 C   0  0  0  0  0  0  0  0  0  0  0  0
   -6.2315  -17.0640    0.0000 C   0  0  0  0  0  0  0  0  0  0  0  0
   -5.0180  -16.1823    0.0000 C   0  0  0  0  0  0  0  0  0  0  0  0
   -3.6477  -16.7924    0.0000 O   0  0  0  0  0  0  0  0  0  0  0  0
   -5.1748  -14.6905    0.0000 N   0  0  0  0  0  0  0  0  0  0  0  0
   -3.9613  -13.8089    0.0000 C   0  0  0  0  0  0  0  0  0  0  0  0
   -4.1181  -12.3171    0.0000 C   0  0  0  0  0  0  0  0  0  0  0  0
   -2.9046  -11.4354    0.0000 C   0  0  0  0  0  0  0  0  0  0  0  0
   -3.0613   -9.9436    0.0000 C   0  0  0  0  0  0  0  0  0  0  0  0
   -1.8478   -9.0619    0.0000 C   0  0  0  0  0  0  0  0  0  0  0  0
   -0.4775   -9.6721    0.0000 N   0  0  0  0  0  0  0  0  0  0  0  0
   -0.3207  -11.1638    0.0000 C   0  0  0  0  0  0  0  0  0  0  0  0
   -1.5342  -12.0455    0.0000 O   0  0  0  0  0  0  0  0  0  0  0  0
    1.0496  -11.7739    0.0000 C   0  0  0  0  0  0  0  0  0  0  0  0
    2.3486  -11.0239    0.0000 C   0  0  0  0  0  0  0  0  0  0  0  0
    3.4634  -12.0276    0.0000 N   0  0  0  0  0  0  0  0  0  0  0  0
    2.8533  -13.3980    0.0000 C   0  0  0  0  0  0  0  0  0  0  0  0
    1.3615  -13.2412    0.0000 S   0  0  0  0  0  0  0  0  0  0  0  0
   -2.0046   -7.5702    0.0000 C   0  0  0  0  0  0  0  0  0  0  0  0
   -3.3037   -6.8202    0.0000 N   0  0  0  0  0  0  0  0  0  0  0  0
   -2.9918   -5.3529    0.0000 C   0  0  0  0  0  0  0  0  0  0  0  0
   -1.5000   -5.1962    0.0000 C   0  0  0  0  0  0  0  0  0  0  0  0
   -0.7500   -3.8971    0.0000 C   0  0  0  0  0  0  0  0  0  0  0  0
    0.7500   -3.8971    0.0000 C   0  0  0  0  0  0  0  0  0  0  0  0
    1.5000   -2.5981    0.0000 C   0  0  0  0  0  0  0  0  0  0  0  0
    0.7500   -1.2990    0.0000 C   0  0  0  0  0  0  0  0  0  0  0  0
    1.5000    0.0000    0.0000 C   0  0  0  0  0  0  0  0  0  0  0  0
    0.7500    1.2990    0.0000 C   0  0  0  0  0  0  0  0  0  0  0  0
   -0.7500    1.2990    0.0000 C   0  0  0  0  0  0  0  0  0  0  0  0
   -1.5000    0.0000    0.0000 C   0  0  0  0  0  0  0  0  0  0  0  0
   -0.7500   -1.2990    0.0000 C   0  0  0  0  0  0  0  0  0  0  0  0
   -1.5000   -2.5981    0.0000 C   0  0  0  0  0  0  0  0  0  0  0  0
   -0.8899   -6.5665    0.0000 N   0  0  0  0  0  0  0  0  0  0  0  0
  1  2  1  0
  2  3  1  0
  3  4  2  0
  4  5  1  0
  5  6  2  0
  6  7  1  0
  7  8  2  0
  8  9  1  0
  9 10  2  0
  9 11  1  0
 11 12  1  0
 12 13  1  0
 13 14  1  0
 14 15  1  0
 15 16  1  0
 16 17  1  0
 17 18  1  0
 18 19  2  0
 18 20  1  0
 20 21  2  0
 21 22  1  0
 22 23  2  0
 23 24  1  0
 16 25  1  0
 25 26  2  0
 26 27  1  0
 27 28  2  0
 28 29  1  0
 29 30  2  0
 30 31  1  0
 31 32  2  0
 32 33  1  0
 33 34  2  0
 34 35  1  0
 35 36  2  0
 36 37  1  0
 37 38  2  0
 28 39  1  0
  8  3  1  0
 24 20  1  0
 39 25  1  0
 38 29  1  0
 37 32  1  0
M  END
>  <molecule_chembl_id>  (38) 
CHEMBL4763995

>  <canonical_smiles>  (38) 
CSc1ccccc1C(=O)NCCCCC(NC(=O)c1cncs1)c1ncc(-c2ccc3ccccc3c2)[nH]1

>  <pchembl_value_mean>  (38) 
4.51

>  <document_chembl_id>  (38) 
CHEMBL4725494

$$$$

     RDKit          2D

 41 43  0  0  0  0  0  0  0  0999 V2000
   21.9195   10.2695    0.0000 C   0  0  0  0  0  0  0  0  0  0  0  0
   21.0156    9.0724    0.0000 C   0  0  0  0  0  0  0  0  0  0  0  0
   19.5269    9.2568    0.0000 C   0  0  0  0  0  0  0  0  0  0  0  0
   18.6230    8.0598    0.0000 C   0  0  0  0  0  0  0  0  0  0  0  0
   17.1343    8.2441    0.0000 C   0  0  0  0  0  0  0  0  0  0  0  0
   16.2304    7.0471    0.0000 C   0  0  0  0  0  0  0  0  0  0  0  0
   14.7418    7.2314    0.0000 C   0  0  0  0  0  0  0  0  0  0  0  0
   13.8378    6.0344    0.0000 C   0  0  0  0  0  0  0  0  0  0  0  0
   14.4225    4.6530    0.0000 O   0  0  0  0  0  0  0  0  0  0  0  0
   12.3492    6.2187    0.0000 S   0  0  0  0  0  0  0  0  0  0  0  0
   11.4452    5.0217    0.0000 C   0  0  0  0  0  0  0  0  0  0  0  0
    9.9566    5.2060    0.0000 C   0  0  0  0  0  0  0  0  0  0  0  0
    9.0526    4.0090    0.0000 C   0  0  0  0  0  0  0  0  0  0  0  0
    7.5640    4.1933    0.0000 C   0  0  0  0  0  0  0  0  0  0  0  0
    6.6601    2.9963    0.0000 C   0  0  0  0  0  0  0  0  0  0  0  0
    5.3173    3.6649    0.0000 C   0  0  0  0  0  0  0  0  0  0  0  0
    3.8237    3.8033    0.0000 C   0  0  0  0  0  0  0  0  0  0  0  0
    3.6853    5.2969    0.0000 O   0  0  0  0  0  0  0  0  0  0  0  0
    2.3810    3.3928    0.0000 N   0  0  0  0  0  0  0  0  0  0  0  0
    1.1839    2.4889    0.0000 C   0  0  0  0  0  0  0  0  0  0  0  0
    0.3943    1.2135    0.0000 C   0  0  0  0  0  0  0  0  0  0  0  0
    1.2760    0.0000    0.0000 N   0  0  0  0  0  0  0  0  0  0  0  0
    0.3943   -1.2135    0.0000 C   0  0  0  0  0  0  0  0  0  0  0  0
   -1.0323   -0.7500    0.0000 C   0  0  0  0  0  0  0  0  0  0  0  0
   -1.0323    0.7500    0.0000 S   0  0  0  0  0  0  0  0  0  0  0  0
    1.1839   -3.0107    0.0000 C   0  0  0  0  0  0  0  0  0  0  0  0
    0.9630   -4.4944    0.0000 N   0  0  0  0  0  0  0  0  0  0  0  0
    2.3057   -5.1630    0.0000 N   0  0  0  0  0  0  0  0  0  0  0  0
    3.8237   -4.3252    0.0000 N   0  0  0  0  0  0  0  0  0  0  0  0
    2.3810   -3.9147    0.0000 N   0  0  0  0  0  0  0  0  0  0  0  0
    5.3173   -4.1868    0.0000 C   0  0  0  0  0  0  0  0  0  0  0  0
    6.6601   -3.5182    0.0000 C   0  0  0  0  0  0  0  0  0  0  0  0
    7.5640   -4.7152    0.0000 O   0  0  0  0  0  0  0  0  0  0  0  0
    7.6706   -2.4096    0.0000 N   0  0  0  0  0  0  0  0  0  0  0  0
    8.2125   -1.0109    0.0000 C   0  0  0  0  0  0  0  0  0  0  0  0
    9.6869   -1.2866    0.0000 C   0  0  0  0  0  0  0  0  0  0  0  0
   10.1855   -2.7013    0.0000 C   0  0  0  0  0  0  0  0  0  0  0  0
   10.6629   -0.1475    0.0000 C   0  0  0  0  0  0  0  0  0  0  0  0
    8.2125    0.4891    0.0000 C   0  0  0  0  0  0  0  0  0  0  0  0
    9.6869    0.7647    0.0000 O   0  0  0  0  0  0  0  0  0  0  0  0
    7.6706    1.8878    0.0000 O   0  0  0  0  0  0  0  0  0  0  0  0
  1  2  1  0
  2  3  1  0
  3  4  1  0
  4  5  1  0
  5  6  1  0
  6  7  1  0
  7  8  1  0
  8  9  2  0
  8 10  1  0
 10 11  1  0
 11 12  1  0
 12 13  1  0
 13 14  2  3
 14 15  1  0
 15 16  1  0
 16 17  1  0
 17 18  2  0
 17 19  1  0
 19 20  1  0
 20 21  1  0
 21 22  2  0
 22 23  1  0
 23 24  2  0
 24 25  1  0
 23 26  1  0
 26 27  1  0
 27 28  2  0
 28 29  1  0
 29 30  1  0
 29 31  1  0
 31 32  1  0
 32 33  2  0
 32 34  1  0
 34 35  1  0
 35 36  1  0
 36 37  1  0
 36 38  1  0
 35 39  1  0
 39 40  2  0
 39 41  1  0
 41 15  1  0
 25 21  1  0
 30 26  2  0
M  END
>  <molecule_chembl_id>  (39) 
CHEMBL2323285

>  <canonical_smiles>  (39) 
CCCCCCCC(=O)SCCC=CC1CC(=O)NCc2nc(cs2)-c2nnn(n2)CC(=O)NC(C(C)C)C(=O)O1

>  <pchembl_value_mean>  (39) 
4.51

>  <document_chembl_id>  (39) 
CHEMBL2321647

$$$$

     RDKit          2D

 22 24  0  0  0  0  0  0  0  0999 V2000
   -5.3142   -9.5216    0.0000 C   0  0  0  0  0  0  0  0  0  0  0  0
   -3.8876   -9.0580    0.0000 O   0  0  0  0  0  0  0  0  0  0  0  0
   -3.5757   -7.5908    0.0000 C   0  0  0  0  0  0  0  0  0  0  0  0
   -4.6904   -6.5871    0.0000 C   0  0  0  0  0  0  0  0  0  0  0  0
   -4.3786   -5.1199    0.0000 C   0  0  0  0  0  0  0  0  0  0  0  0
   -2.9520   -4.6564    0.0000 C   0  0  0  0  0  0  0  0  0  0  0  0
   -2.6401   -3.1891    0.0000 C   0  0  0  0  0  0  0  0  0  0  0  0
   -1.2135   -2.7256    0.0000 N   0  0  0  0  0  0  0  0  0  0  0  0
   -0.0000   -3.6073    0.0000 C   0  0  0  0  0  0  0  0  0  0  0  0
    1.2135   -2.7256    0.0000 C   0  0  0  0  0  0  0  0  0  0  0  0
    0.7500   -1.2990    0.0000 C   0  0  0  0  0  0  0  0  0  0  0  0
    1.5000    0.0000    0.0000 C   0  0  0  0  0  0  0  0  0  0  0  0
    0.7500    1.2990    0.0000 C   0  0  0  0  0  0  0  0  0  0  0  0
   -0.7500    1.2990    0.0000 C   0  0  0  0  0  0  0  0  0  0  0  0
   -1.5000    2.5981    0.0000 C   0  0  0  0  0  0  0  0  0  0  0  0
   -3.0000    2.5981    0.0000 O   0  0  0  0  0  0  0  0  0  0  0  0
   -0.7500    3.8971    0.0000 N   0  0  0  0  0  0  0  0  0  0  0  0
   -1.5000    5.1962    0.0000 O   0  0  0  0  0  0  0  0  0  0  0  0
   -1.5000    0.0000    0.0000 C   0  0  0  0  0  0  0  0  0  0  0  0
   -0.7500   -1.2990    0.0000 C   0  0  0  0  0  0  0  0  0  0  0  0
   -1.8373   -5.6601    0.0000 C   0  0  0  0  0  0  0  0  0  0  0  0
   -2.1491   -7.1273    0.0000 C   0  0  0  0  0  0  0  0  0  0  0  0
  1  2  1  0
  2  3  1  0
  3  4  2  0
  4  5  1  0
  5  6  2  0
  6  7  1  0
  7  8  1  0
  8  9  1  0
  9 10  2  0
 10 11  1  0
 11 12  2  0
 12 13  1  0
 13 14  2  0
 14 15  1  0
 15 16  2  0
 15 17  1  0
 17 18  1  0
 14 19  1  0
 19 20  2  0
  6 21  1  0
 21 22  2  0
 22  3  1  0
 20  8  1  0
 20 11  1  0
M  END
>  <molecule_chembl_id>  (40) 
CHEMBL2170177

>  <canonical_smiles>  (40) 
COc1ccc(Cn2ccc3ccc(C(=O)NO)cc32)cc1

>  <pchembl_value_mean>  (40) 
4.51

>  <document_chembl_id>  (40) 
CHEMBL4190328

$$$$

     RDKit          2D

 19 20  0  0  0  0  0  0  0  0999 V2000
    3.7500    1.2990    0.0000 O   0  0  0  0  0  0  0  0  0  0  0  0
    3.0000    0.0000    0.0000 C   0  0  0  0  0  0  0  0  0  0  0  0
    3.7500   -1.2990    0.0000 N   0  0  0  0  0  0  0  0  0  0  0  0
    5.2500   -1.2990    0.0000 O   0  0  0  0  0  0  0  0  0  0  0  0
    1.5000    0.0000    0.0000 C   0  0  0  0  0  0  0  0  0  0  0  0
    0.7500   -1.2990    0.0000 C   0  0  0  0  0  0  0  0  0  0  0  0
   -0.7500   -1.2990    0.0000 C   0  0  0  0  0  0  0  0  0  0  0  0
   -1.5000    0.0000    0.0000 C   0  0  0  0  0  0  0  0  0  0  0  0
   -0.7500    1.2990    0.0000 C   0  0  0  0  0  0  0  0  0  0  0  0
   -1.5000    2.5981    0.0000 C   0  0  0  0  0  0  0  0  0  0  0  0
   -3.0000    2.5981    0.0000 O   0  0  0  0  0  0  0  0  0  0  0  0
   -0.7500    3.8971    0.0000 N   0  0  0  0  0  0  0  0  0  0  0  0
   -1.5000    5.1962    0.0000 C   0  0  0  0  0  0  0  0  0  0  0  0
   -0.7500    6.4952    0.0000 C   0  0  0  0  0  0  0  0  0  0  0  0
   -1.5000    7.7942    0.0000 C   0  0  0  0  0  0  0  0  0  0  0  0
   -3.0000    7.7942    0.0000 C   0  0  0  0  0  0  0  0  0  0  0  0
   -3.7500    6.4952    0.0000 C   0  0  0  0  0  0  0  0  0  0  0  0
   -3.0000    5.1962    0.0000 C   0  0  0  0  0  0  0  0  0  0  0  0
    0.7500    1.2990    0.0000 C   0  0  0  0  0  0  0  0  0  0  0  0
  1  2  2  0
  2  3  1  0
  3  4  1  0
  2  5  1  0
  5  6  2  0
  6  7  1  0
  7  8  2  0
  8  9  1  0
  9 10  1  0
 10 11  2  0
 10 12  1  0
 12 13  1  0
 13 14  2  0
 14 15  1  0
 15 16  2  0
 16 17  1  0
 17 18  2  0
  9 19  2  0
 19  5  1  0
 18 13  1  0
M  END
>  <molecule_chembl_id>  (41) 
CHEMBL2381520

>  <canonical_smiles>  (41) 
O=C(NO)c1cccc(C(=O)Nc2ccccc2)c1

>  <pchembl_value_mean>  (41) 
4.52

>  <document_chembl_id>  (41) 
CHEMBL2380312

$$$$

     RDKit          2D

 25 27  0  0  0  0  0  0  0  0999 V2000
    5.4627   -4.5501    0.0000 C   0  0  0  0  0  0  0  0  0  0  0  0
    3.9955   -4.2382    0.0000 C   0  0  0  0  0  0  0  0  0  0  0  0
    2.9918   -5.3529    0.0000 N   0  0  0  0  0  0  0  0  0  0  0  0
    1.5000   -5.1962    0.0000 C   0  0  0  0  0  0  0  0  0  0  0  0
    0.7500   -3.8971    0.0000 S   0  0  0  0  0  0  0  0  0  0  0  0
    1.5000   -2.5981    0.0000 C   0  0  0  0  0  0  0  0  0  0  0  0
    0.7500   -1.2990    0.0000 C   0  0  0  0  0  0  0  0  0  0  0  0
    1.5000    0.0000    0.0000 C   0  0  0  0  0  0  0  0  0  0  0  0
    0.7500    1.2990    0.0000 C   0  0  0  0  0  0  0  0  0  0  0  0
   -0.7500    1.2990    0.0000 C   0  0  0  0  0  0  0  0  0  0  0  0
   -1.5000    2.5981    0.0000 C   0  0  0  0  0  0  0  0  0  0  0  0
   -3.0000    2.5981    0.0000 O   0  0  0  0  0  0  0  0  0  0  0  0
   -0.7500    3.8971    0.0000 N   0  0  0  0  0  0  0  0  0  0  0  0
   -1.5000    5.1962    0.0000 O   0  0  0  0  0  0  0  0  0  0  0  0
   -1.5000    0.0000    0.0000 C   0  0  0  0  0  0  0  0  0  0  0  0
   -0.7500   -1.2990    0.0000 C   0  0  0  0  0  0  0  0  0  0  0  0
    0.8899   -6.5665    0.0000 N   0  0  0  0  0  0  0  0  0  0  0  0
    2.0046   -7.5702    0.0000 N   0  0  0  0  0  0  0  0  0  0  0  0
    3.3037   -6.8202    0.0000 C   0  0  0  0  0  0  0  0  0  0  0  0
    4.6740   -7.4303    0.0000 C   0  0  0  0  0  0  0  0  0  0  0  0
    4.8308   -8.9221    0.0000 C   0  0  0  0  0  0  0  0  0  0  0  0
    6.2011   -9.5322    0.0000 C   0  0  0  0  0  0  0  0  0  0  0  0
    7.4146   -8.6505    0.0000 N   0  0  0  0  0  0  0  0  0  0  0  0
    7.2578   -7.1587    0.0000 C   0  0  0  0  0  0  0  0  0  0  0  0
    5.8875   -6.5486    0.0000 C   0  0  0  0  0  0  0  0  0  0  0  0
  1  2  1  0
  2  3  1  0
  3  4  1  0
  4  5  1  0
  5  6  1  0
  6  7  1  0
  7  8  2  0
  8  9  1  0
  9 10  2  0
 10 11  1  0
 11 12  2  0
 11 13  1  0
 13 14  1  0
 10 15  1  0
 15 16  2  0
  4 17  2  0
 17 18  1  0
 18 19  2  0
 19 20  1  0
 20 21  2  0
 21 22  1  0
 22 23  2  0
 23 24  1  0
 24 25  2  0
 19  3  1  0
 25 20  1  0
 16  7  1  0
M  END
>  <molecule_chembl_id>  (42) 
CHEMBL4863652

>  <canonical_smiles>  (42) 
CCn1c(SCc2ccc(C(=O)NO)cc2)nnc1-c1ccncc1

>  <pchembl_value_mean>  (42) 
4.52

>  <document_chembl_id>  (42) 
CHEMBL4823270

$$$$

     RDKit          2D

 42 41  0  0  0  0  0  0  0  0999 V2000
    0.0000    0.0000    0.0000 C   0  0  0  0  0  0  0  0  0  0  0  0
    1.2990    0.7500    0.0000 C   0  0  0  0  0  0  0  0  0  0  0  0
    2.5981    1.5000    0.0000 C   0  0  0  0  0  0  0  0  0  0  0  0
    2.0490   -0.5490    0.0000 C   0  0  0  0  0  0  0  0  0  0  0  0
    0.5490    2.0490    0.0000 O   0  0  0  0  0  0  0  0  0  0  0  0
    1.2990    3.3481    0.0000 C   0  0  0  0  0  0  0  0  0  0  0  0
    0.5490    4.6471    0.0000 O   0  0  0  0  0  0  0  0  0  0  0  0
    2.7990    3.3481    0.0000 O   0  0  0  0  0  0  0  0  0  0  0  0
    3.5490    4.6471    0.0000 N   0  0  0  0  0  0  0  0  0  0  0  0
    5.0490    4.6471    0.0000 C   0  0  0  0  0  0  0  0  0  0  0  0
    5.7990    3.3481    0.0000 O   0  0  0  0  0  0  0  0  0  0  0  0
    5.7990    5.9462    0.0000 C   0  0  0  0  0  0  0  0  0  0  0  0
    7.2990    5.9462    0.0000 C   0  0  0  0  0  0  0  0  0  0  0  0
    8.0490    7.2452    0.0000 C   0  0  0  0  0  0  0  0  0  0  0  0
    9.5490    7.2452    0.0000 C   0  0  0  0  0  0  0  0  0  0  0  0
   10.2990    8.5442    0.0000 C   0  0  0  0  0  0  0  0  0  0  0  0
   11.7990    8.5442    0.0000 C   0  0  0  0  0  0  0  0  0  0  0  0
   12.5490    9.8433    0.0000 C   0  0  0  0  0  0  0  0  0  0  0  0
   11.7990   11.1423    0.0000 O   0  0  0  0  0  0  0  0  0  0  0  0
   14.0490    9.8433    0.0000 N   0  0  0  0  0  0  0  0  0  0  0  0
   14.7990    8.5442    0.0000 O   0  0  0  0  0  0  0  0  0  0  0  0
   16.2990    8.5442    0.0000 C   0  0  0  0  0  0  0  0  0  0  0  0
   17.0490    9.8433    0.0000 O   0  0  0  0  0  0  0  0  0  0  0  0
   17.0490    7.2452    0.0000 O   0  0  0  0  0  0  0  0  0  0  0  0
   18.5490    7.2452    0.0000 C   0  0  0  0  0  0  0  0  0  0  0  0
   18.5490    5.7452    0.0000 C   0  0  0  0  0  0  0  0  0  0  0  0
   18.5490    8.7452    0.0000 C   0  0  0  0  0  0  0  0  0  0  0  0
   20.0490    7.2452    0.0000 C   0  0  0  0  0  0  0  0  0  0  0  0
   14.7990   11.1423    0.0000 C   0  0  0  0  0  0  0  0  0  0  0  0
   14.0490   12.4413    0.0000 O   0  0  0  0  0  0  0  0  0  0  0  0
   16.2990   11.1423    0.0000 O   0  0  0  0  0  0  0  0  0  0  0  0
   17.0490   12.4413    0.0000 C   0  0  0  0  0  0  0  0  0  0  0  0
   18.3481   11.6913    0.0000 C   0  0  0  0  0  0  0  0  0  0  0  0
   15.7500   13.1913    0.0000 C   0  0  0  0  0  0  0  0  0  0  0  0
   17.7990   13.7404    0.0000 C   0  0  0  0  0  0  0  0  0  0  0  0
    2.7990    5.9462    0.0000 C   0  0  0  0  0  0  0  0  0  0  0  0
    1.2990    5.9462    0.0000 O   0  0  0  0  0  0  0  0  0  0  0  0
    3.5490    7.2452    0.0000 O   0  0  0  0  0  0  0  0  0  0  0  0
    2.7990    8.5442    0.0000 C   0  0  0  0  0  0  0  0  0  0  0  0
    4.0981    9.2942    0.0000 C   0  0  0  0  0  0  0  0  0  0  0  0
    1.5000    7.7942    0.0000 C   0  0  0  0  0  0  0  0  0  0  0  0
    2.0490    9.8433    0.0000 C   0  0  0  0  0  0  0  0  0  0  0  0
  1  2  1  0
  2  3  1  0
  2  4  1  0
  2  5  1  0
  5  6  1  0
  6  7  2  0
  6  8  1  0
  8  9  1  0
  9 10  1  0
 10 11  2  0
 10 12  1  0
 12 13  1  0
 13 14  1  0
 14 15  1  0
 15 16  1  0
 16 17  1  0
 17 18  1  0
 18 19  2  0
 18 20  1  0
 20 21  1  0
 21 22  1  0
 22 23  2  0
 22 24  1  0
 24 25  1  0
 25 26  1  0
 25 27  1  0
 25 28  1  0
 20 29  1  0
 29 30  2  0
 29 31  1  0
 31 32  1  0
 32 33  1  0
 32 34  1  0
 32 35  1  0
  9 36  1  0
 36 37  2  0
 36 38  1  0
 38 39  1  0
 39 40  1  0
 39 41  1  0
 39 42  1  0
M  END
>  <molecule_chembl_id>  (43) 
CHEMBL3739529

>  <canonical_smiles>  (43) 
CC(C)(C)OC(=O)ON(C(=O)CCCCCCC(=O)N(OC(=O)OC(C)(C)C)C(=O)OC(C)(C)C)C(=O)OC(C)(C)C

>  <pchembl_value_mean>  (43) 
4.53

>  <document_chembl_id>  (43) 
CHEMBL3739297

$$$$

     RDKit          2D

 27 30  0  0  0  0  0  0  0  0999 V2000
   -8.5256    0.3621    0.0000 O   0  0  0  0  0  0  0  0  0  0  0  0
   -7.0990    0.8256    0.0000 C   0  0  0  0  0  0  0  0  0  0  0  0
   -6.7871    2.2929    0.0000 N   0  0  0  0  0  0  0  0  0  0  0  0
   -7.9018    3.2966    0.0000 O   0  0  0  0  0  0  0  0  0  0  0  0
   -5.9843   -0.1781    0.0000 C   0  0  0  0  0  0  0  0  0  0  0  0
   -4.5577    0.2855    0.0000 C   0  0  0  0  0  0  0  0  0  0  0  0
   -3.4430   -0.7182    0.0000 C   0  0  0  0  0  0  0  0  0  0  0  0
   -3.7548   -2.1855    0.0000 C   0  0  0  0  0  0  0  0  0  0  0  0
   -2.6401   -3.1891    0.0000 C   0  0  0  0  0  0  0  0  0  0  0  0
   -1.2135   -2.7256    0.0000 N   0  0  0  0  0  0  0  0  0  0  0  0
   -0.0000   -3.6073    0.0000 C   0  0  0  0  0  0  0  0  0  0  0  0
    1.2135   -2.7256    0.0000 C   0  0  0  0  0  0  0  0  0  0  0  0
    0.7500   -1.2990    0.0000 C   0  0  0  0  0  0  0  0  0  0  0  0
    1.5000    0.0000    0.0000 C   0  0  0  0  0  0  0  0  0  0  0  0
    0.7500    1.2990    0.0000 C   0  0  0  0  0  0  0  0  0  0  0  0
    1.5000    2.5981    0.0000 F   0  0  0  0  0  0  0  0  0  0  0  0
   -0.7500    1.2990    0.0000 C   0  0  0  0  0  0  0  0  0  0  0  0
   -1.5000    0.0000    0.0000 C   0  0  0  0  0  0  0  0  0  0  0  0
   -0.7500   -1.2990    0.0000 C   0  0  0  0  0  0  0  0  0  0  0  0
    2.5838   -3.3357    0.0000 C   0  0  0  0  0  0  0  0  0  0  0  0
    2.7406   -4.8275    0.0000 S   0  0  0  0  0  0  0  0  0  0  0  0
    3.3982   -6.1757    0.0000 O   0  0  0  0  0  0  0  0  0  0  0  0
    4.1825   -4.4141    0.0000 O   0  0  0  0  0  0  0  0  0  0  0  0
    1.5271   -5.7092    0.0000 C   0  0  0  0  0  0  0  0  0  0  0  0
    0.1568   -5.0991    0.0000 C   0  0  0  0  0  0  0  0  0  0  0  0
   -5.1814   -2.6490    0.0000 C   0  0  0  0  0  0  0  0  0  0  0  0
   -6.2961   -1.6453    0.0000 C   0  0  0  0  0  0  0  0  0  0  0  0
  1  2  2  0
  2  3  1  0
  3  4  1  0
  2  5  1  0
  5  6  2  0
  6  7  1  0
  7  8  2  0
  8  9  1  0
  9 10  1  0
 10 11  1  0
 11 12  2  0
 12 13  1  0
 13 14  2  0
 14 15  1  0
 15 16  1  0
 15 17  2  0
 17 18  1  0
 18 19  2  0
 12 20  1  0
 20 21  1  0
 21 22  2  0
 21 23  2  0
 21 24  1  0
 24 25  1  0
  8 26  1  0
 26 27  2  0
 27  5  1  0
 19 10  1  0
 25 11  1  0
 19 13  1  0
M  END
>  <molecule_chembl_id>  (44) 
CHEMBL4531108

>  <canonical_smiles>  (44) 
O=C(NO)c1ccc(Cn2c3c(c4cc(F)ccc42)CS(=O)(=O)CC3)cc1

>  <pchembl_value_mean>  (44) 
4.54

>  <document_chembl_id>  (44) 
CHEMBL4422610

$$$$

     RDKit          2D

 26 28  0  0  0  0  0  0  0  0999 V2000
    7.5000   -4.0981    0.0000 C   0  0  0  0  0  0  0  0  0  0  0  0
    7.5000   -2.5981    0.0000 C   0  0  0  0  0  0  0  0  0  0  0  0
    7.5000   -1.0981    0.0000 C   0  0  0  0  0  0  0  0  0  0  0  0
    9.0000   -2.5981    0.0000 C   0  0  0  0  0  0  0  0  0  0  0  0
    6.0000   -2.5981    0.0000 C   0  0  0  0  0  0  0  0  0  0  0  0
    5.2500   -3.8971    0.0000 C   0  0  0  0  0  0  0  0  0  0  0  0
    3.7500   -3.8971    0.0000 C   0  0  0  0  0  0  0  0  0  0  0  0
    3.0000   -2.5981    0.0000 C   0  0  0  0  0  0  0  0  0  0  0  0
    1.5000   -2.5981    0.0000 C   0  0  0  0  0  0  0  0  0  0  0  0
    0.7500   -1.2990    0.0000 C   0  0  0  0  0  0  0  0  0  0  0  0
    1.5000    0.0000    0.0000 C   0  0  0  0  0  0  0  0  0  0  0  0
    0.7500    1.2990    0.0000 C   0  0  0  0  0  0  0  0  0  0  0  0
   -0.7500    1.2990    0.0000 C   0  0  0  0  0  0  0  0  0  0  0  0
   -1.5000    0.0000    0.0000 C   0  0  0  0  0  0  0  0  0  0  0  0
   -0.7500   -1.2990    0.0000 C   0  0  0  0  0  0  0  0  0  0  0  0
   -1.5000   -2.5981    0.0000 C   0  0  0  0  0  0  0  0  0  0  0  0
   -0.7500   -3.8971    0.0000 C   0  0  0  0  0  0  0  0  0  0  0  0
    0.7500   -3.8971    0.0000 N   0  0  0  0  0  0  0  0  0  0  0  0
    1.5000   -5.1962    0.0000 C   0  0  0  0  0  0  0  0  0  0  0  0
    0.7500   -6.4952    0.0000 C   0  0  0  0  0  0  0  0  0  0  0  0
    1.5000   -7.7942    0.0000 C   0  0  0  0  0  0  0  0  0  0  0  0
    3.0000   -7.7942    0.0000 O   0  0  0  0  0  0  0  0  0  0  0  0
    0.7500   -9.0933    0.0000 N   0  0  0  0  0  0  0  0  0  0  0  0
    1.5000  -10.3923    0.0000 O   0  0  0  0  0  0  0  0  0  0  0  0
    3.7500   -1.2990    0.0000 C   0  0  0  0  0  0  0  0  0  0  0  0
    5.2500   -1.2990    0.0000 C   0  0  0  0  0  0  0  0  0  0  0  0
  1  2  1  0
  2  3  1  0
  2  4  1  0
  2  5  1  0
  5  6  2  0
  6  7  1  0
  7  8  2  0
  8  9  1  0
  9 10  1  0
 10 11  2  0
 11 12  1  0
 12 13  2  0
 13 14  1  0
 14 15  2  0
 15 16  1  0
 16 17  1  0
 17 18  1  0
 18 19  1  0
 19 20  1  0
 20 21  1  0
 21 22  2  0
 21 23  1  0
 23 24  1  0
  8 25  1  0
 25 26  2  0
 26  5  1  0
 18  9  1  0
 15 10  1  0
M  END
>  <molecule_chembl_id>  (45) 
CHEMBL4211873

>  <canonical_smiles>  (45) 
CC(C)(C)c1ccc(C2c3ccccc3CCN2CCC(=O)NO)cc1

>  <pchembl_value_mean>  (45) 
4.54

>  <document_chembl_id>  (45) 
CHEMBL4190328

$$$$

     RDKit          2D

 40 45  0  0  0  0  0  0  0  0999 V2000
   -1.5342  -12.0455    0.0000 O   0  0  0  0  0  0  0  0  0  0  0  0
   -0.3207  -11.1638    0.0000 C   0  0  0  0  0  0  0  0  0  0  0  0
   -0.4775   -9.6721    0.0000 N   0  0  0  0  0  0  0  0  0  0  0  0
   -1.8478   -9.0619    0.0000 C   0  0  0  0  0  0  0  0  0  0  0  0
   -3.0613   -9.9436    0.0000 C   0  0  0  0  0  0  0  0  0  0  0  0
   -2.9046  -11.4354    0.0000 C   0  0  0  0  0  0  0  0  0  0  0  0
   -4.1181  -12.3171    0.0000 C   0  0  0  0  0  0  0  0  0  0  0  0
   -3.9613  -13.8089    0.0000 C   0  0  0  0  0  0  0  0  0  0  0  0
   -5.1748  -14.6905    0.0000 N   0  0  0  0  0  0  0  0  0  0  0  0
   -5.0180  -16.1823    0.0000 C   0  0  0  0  0  0  0  0  0  0  0  0
   -3.6477  -16.7924    0.0000 O   0  0  0  0  0  0  0  0  0  0  0  0
   -6.2315  -17.0640    0.0000 C   0  0  0  0  0  0  0  0  0  0  0  0
   -7.6019  -16.4539    0.0000 C   0  0  0  0  0  0  0  0  0  0  0  0
   -8.8154  -17.3356    0.0000 C   0  0  0  0  0  0  0  0  0  0  0  0
   -8.6586  -18.8274    0.0000 C   0  0  0  0  0  0  0  0  0  0  0  0
   -7.2883  -19.4375    0.0000 C   0  0  0  0  0  0  0  0  0  0  0  0
   -6.0748  -18.5558    0.0000 C   0  0  0  0  0  0  0  0  0  0  0  0
   -4.7044  -19.1659    0.0000 C   0  0  0  0  0  0  0  0  0  0  0  0
   -3.2126  -19.0091    0.0000 C   0  0  0  0  0  0  0  0  0  0  0  0
   -3.8228  -20.3794    0.0000 C   0  0  0  0  0  0  0  0  0  0  0  0
   -2.0046   -7.5702    0.0000 C   0  0  0  0  0  0  0  0  0  0  0  0
   -3.3037   -6.8202    0.0000 N   0  0  0  0  0  0  0  0  0  0  0  0
   -2.9918   -5.3529    0.0000 C   0  0  0  0  0  0  0  0  0  0  0  0
   -1.5000   -5.1962    0.0000 C   0  0  0  0  0  0  0  0  0  0  0  0
   -0.7500   -3.8971    0.0000 C   0  0  0  0  0  0  0  0  0  0  0  0
    0.7500   -3.8971    0.0000 C   0  0  0  0  0  0  0  0  0  0  0  0
    1.5000   -2.5981    0.0000 C   0  0  0  0  0  0  0  0  0  0  0  0
    0.7500   -1.2990    0.0000 C   0  0  0  0  0  0  0  0  0  0  0  0
    1.5000    0.0000    0.0000 C   0  0  0  0  0  0  0  0  0  0  0  0
    0.7500    1.2990    0.0000 C   0  0  0  0  0  0  0  0  0  0  0  0
   -0.7500    1.2990    0.0000 C   0  0  0  0  0  0  0  0  0  0  0  0
   -1.5000    0.0000    0.0000 C   0  0  0  0  0  0  0  0  0  0  0  0
   -0.7500   -1.2990    0.0000 C   0  0  0  0  0  0  0  0  0  0  0  0
   -1.5000   -2.5981    0.0000 C   0  0  0  0  0  0  0  0  0  0  0  0
   -0.8899   -6.5665    0.0000 N   0  0  0  0  0  0  0  0  0  0  0  0
    1.0496  -11.7739    0.0000 C   0  0  0  0  0  0  0  0  0  0  0  0
    2.3486  -11.0239    0.0000 C   0  0  0  0  0  0  0  0  0  0  0  0
    3.4634  -12.0276    0.0000 N   0  0  0  0  0  0  0  0  0  0  0  0
    2.8533  -13.3980    0.0000 C   0  0  0  0  0  0  0  0  0  0  0  0
    1.3615  -13.2412    0.0000 S   0  0  0  0  0  0  0  0  0  0  0  0
  1  2  2  0
  2  3  1  0
  3  4  1  0
  4  5  1  0
  5  6  1  0
  6  7  1  0
  7  8  1  0
  8  9  1  0
  9 10  1  0
 10 11  2  0
 10 12  1  0
 12 13  2  0
 13 14  1  0
 14 15  2  0
 15 16  1  0
 16 17  2  0
 17 18  1  0
 18 19  1  0
 19 20  1  0
  4 21  1  0
 21 22  2  0
 22 23  1  0
 23 24  2  0
 24 25  1  0
 25 26  2  0
 26 27  1  0
 27 28  2  0
 28 29  1  0
 29 30  2  0
 30 31  1  0
 31 32  2  0
 32 33  1  0
 33 34  2  0
 24 35  1  0
  2 36  1  0
 36 37  2  0
 37 38  1  0
 38 39  2  0
 39 40  1  0
 17 12  1  0
 20 18  1  0
 35 21  1  0
 40 36  1  0
 34 25  1  0
 33 28  1  0
M  END
>  <molecule_chembl_id>  (46) 
CHEMBL4752535

>  <canonical_smiles>  (46) 
O=C(NC(CCCCNC(=O)c1ccccc1C1CC1)c1ncc(-c2ccc3ccccc3c2)[nH]1)c1cncs1

>  <pchembl_value_mean>  (46) 
4.54

>  <document_chembl_id>  (46) 
CHEMBL4725494

$$$$

     RDKit          2D

 23 24  0  0  0  0  0  0  0  0999 V2000
   -1.0409   -5.7068    0.0000 C   0  0  0  0  0  0  0  0  0  0  0  0
   -0.5773   -4.2803    0.0000 C   0  0  0  0  0  0  0  0  0  0  0  0
    0.8899   -3.9684    0.0000 N   0  0  0  0  0  0  0  0  0  0  0  0
    2.0046   -4.9721    0.0000 C   0  0  0  0  0  0  0  0  0  0  0  0
    1.8478   -6.4639    0.0000 S   0  0  0  0  0  0  0  0  0  0  0  0
    3.0613   -7.3456    0.0000 C   0  0  0  0  0  0  0  0  0  0  0  0
    2.9046   -8.8373    0.0000 C   0  0  0  0  0  0  0  0  0  0  0  0
    4.1181   -9.7190    0.0000 C   0  0  0  0  0  0  0  0  0  0  0  0
    3.9613  -11.2108    0.0000 C   0  0  0  0  0  0  0  0  0  0  0  0
    5.1748  -12.0925    0.0000 C   0  0  0  0  0  0  0  0  0  0  0  0
    5.0180  -13.5843    0.0000 C   0  0  0  0  0  0  0  0  0  0  0  0
    3.6477  -14.1944    0.0000 O   0  0  0  0  0  0  0  0  0  0  0  0
    6.2315  -14.4659    0.0000 N   0  0  0  0  0  0  0  0  0  0  0  0
    6.0748  -15.9577    0.0000 O   0  0  0  0  0  0  0  0  0  0  0  0
    3.3037   -4.2221    0.0000 N   0  0  0  0  0  0  0  0  0  0  0  0
    2.9918   -2.7549    0.0000 N   0  0  0  0  0  0  0  0  0  0  0  0
    1.5000   -2.5981    0.0000 C   0  0  0  0  0  0  0  0  0  0  0  0
    0.7500   -1.2990    0.0000 C   0  0  0  0  0  0  0  0  0  0  0  0
    1.5000    0.0000    0.0000 C   0  0  0  0  0  0  0  0  0  0  0  0
    0.7500    1.2990    0.0000 C   0  0  0  0  0  0  0  0  0  0  0  0
   -0.7500    1.2990    0.0000 N   0  0  0  0  0  0  0  0  0  0  0  0
   -1.5000    0.0000    0.0000 C   0  0  0  0  0  0  0  0  0  0  0  0
   -0.7500   -1.2990    0.0000 C   0  0  0  0  0  0  0  0  0  0  0  0
  1  2  1  0
  2  3  1  0
  3  4  1  0
  4  5  1  0
  5  6  1  0
  6  7  1  0
  7  8  1  0
  8  9  1  0
  9 10  1  0
 10 11  1  0
 11 12  2  0
 11 13  1  0
 13 14  1  0
  4 15  2  0
 15 16  1  0
 16 17  2  0
 17 18  1  0
 18 19  2  0
 19 20  1  0
 20 21  2  0
 21 22  1  0
 22 23  2  0
 17  3  1  0
 23 18  1  0
M  END
>  <molecule_chembl_id>  (47) 
CHEMBL4863192

>  <canonical_smiles>  (47) 
CCn1c(SCCCCCC(=O)NO)nnc1-c1ccncc1

>  <pchembl_value_mean>  (47) 
4.54

>  <document_chembl_id>  (47) 
CHEMBL4823270

$$$$

     RDKit          2D

 22 21  0  0  0  0  0  0  0  0999 V2000
   -1.2990    2.2500    0.0000 O   0  0  0  0  0  0  0  0  0  0  0  0
   -1.2990    0.7500    0.0000 C   0  0  0  0  0  0  0  0  0  0  0  0
   -2.5981    0.0000    0.0000 O   0  0  0  0  0  0  0  0  0  0  0  0
    0.0000    0.0000    0.0000 C   0  0  0  0  0  0  0  0  0  0  0  0
    1.2990    0.7500    0.0000 C   0  0  0  0  0  0  0  0  0  0  0  0
    1.2990    2.2500    0.0000 O   0  0  0  0  0  0  0  0  0  0  0  0
    2.5981   -0.0000    0.0000 C   0  0  0  0  0  0  0  0  0  0  0  0
    3.8971    0.7500    0.0000 C   0  0  0  0  0  0  0  0  0  0  0  0
    5.1962   -0.0000    0.0000 C   0  0  0  0  0  0  0  0  0  0  0  0
    6.4952    0.7500    0.0000 C   0  0  0  0  0  0  0  0  0  0  0  0
    7.7942   -0.0000    0.0000 S   0  0  0  0  0  0  0  0  0  0  0  0
    9.0933    0.7500    0.0000 S   0  0  0  0  0  0  0  0  0  0  0  0
   10.3923   -0.0000    0.0000 C   0  0  0  0  0  0  0  0  0  0  0  0
   11.6913    0.7500    0.0000 C   0  0  0  0  0  0  0  0  0  0  0  0
   12.9904   -0.0000    0.0000 C   0  0  0  0  0  0  0  0  0  0  0  0
   14.2894    0.7500    0.0000 C   0  0  0  0  0  0  0  0  0  0  0  0
   15.5885   -0.0000    0.0000 C   0  0  0  0  0  0  0  0  0  0  0  0
   15.5885   -1.5000    0.0000 O   0  0  0  0  0  0  0  0  0  0  0  0
   16.8875    0.7500    0.0000 C   0  0  0  0  0  0  0  0  0  0  0  0
   18.1865   -0.0000    0.0000 C   0  0  0  0  0  0  0  0  0  0  0  0
   18.1865   -1.5000    0.0000 O   0  0  0  0  0  0  0  0  0  0  0  0
   19.4856    0.7500    0.0000 O   0  0  0  0  0  0  0  0  0  0  0  0
  1  2  2  0
  2  3  1  0
  2  4  1  0
  4  5  1  0
  5  6  1  0
  5  7  1  0
  7  8  2  3
  8  9  1  0
  9 10  1  0
 10 11  1  0
 11 12  1  0
 12 13  1  0
 13 14  1  0
 14 15  1  0
 15 16  2  3
 16 17  1  0
 17 18  1  0
 17 19  1  0
 19 20  1  0
 20 21  2  0
 20 22  1  0
M  END
>  <molecule_chembl_id>  (48) 
CHEMBL5074871

>  <canonical_smiles>  (48) 
O=C(O)CC(O)C=CCCSSCCC=CC(O)CC(=O)O

>  <pchembl_value_mean>  (48) 
4.55

>  <document_chembl_id>  (48) 
CHEMBL5046273

$$$$

     RDKit          2D

 23 24  0  0  0  0  0  0  0  0999 V2000
    6.0000    0.0000    0.0000 O   0  0  0  0  0  0  0  0  0  0  0  0
    5.2500   -1.2990    0.0000 C   0  0  0  0  0  0  0  0  0  0  0  0
    3.7500   -1.2990    0.0000 C   0  0  0  0  0  0  0  0  0  0  0  0
    3.0000    0.0000    0.0000 C   0  0  0  0  0  0  0  0  0  0  0  0
    1.5000    0.0000    0.0000 C   0  0  0  0  0  0  0  0  0  0  0  0
    0.7500   -1.2990    0.0000 C   0  0  0  0  0  0  0  0  0  0  0  0
   -0.7500   -1.2990    0.0000 C   0  0  0  0  0  0  0  0  0  0  0  0
   -1.5000    0.0000    0.0000 C   0  0  0  0  0  0  0  0  0  0  0  0
   -3.0000    0.0000    0.0000 C   0  0  0  0  0  0  0  0  0  0  0  0
   -3.7500    1.2990    0.0000 N   0  0  0  0  0  0  0  0  0  0  0  0
   -5.2500    1.2990    0.0000 O   0  0  0  0  0  0  0  0  0  0  0  0
   -6.0000    2.5981    0.0000 C   0  0  0  0  0  0  0  0  0  0  0  0
   -7.5000    2.5981    0.0000 C   0  0  0  0  0  0  0  0  0  0  0  0
   -8.2500    3.8971    0.0000 N   0  0  0  0  0  0  0  0  0  0  0  0
   -7.5000    5.1962    0.0000 C   0  0  0  0  0  0  0  0  0  0  0  0
   -8.2500    6.4952    0.0000 C   0  0  0  0  0  0  0  0  0  0  0  0
   -9.7500    6.4952    0.0000 O   0  0  0  0  0  0  0  0  0  0  0  0
  -10.5000    5.1962    0.0000 C   0  0  0  0  0  0  0  0  0  0  0  0
   -9.7500    3.8971    0.0000 C   0  0  0  0  0  0  0  0  0  0  0  0
   -0.7500    1.2990    0.0000 C   0  0  0  0  0  0  0  0  0  0  0  0
    0.7500    1.2990    0.0000 C   0  0  0  0  0  0  0  0  0  0  0  0
    6.0000   -2.5981    0.0000 N   0  0  0  0  0  0  0  0  0  0  0  0
    7.5000   -2.5981    0.0000 O   0  0  0  0  0  0  0  0  0  0  0  0
  1  2  2  0
  2  3  1  0
  3  4  2  3
  4  5  1  0
  5  6  2  0
  6  7  1  0
  7  8  2  0
  8  9  1  0
  9 10  2  3
 10 11  1  0
 11 12  1  0
 12 13  1  0
 13 14  1  0
 14 15  1  0
 15 16  1  0
 16 17  1  0
 17 18  1  0
 18 19  1  0
  8 20  1  0
 20 21  2  0
  2 22  1  0
 22 23  1  0
 21  5  1  0
 19 14  1  0
M  END
>  <molecule_chembl_id>  (49) 
CHEMBL472631

>  <canonical_smiles>  (49) 
O=C(C=Cc1ccc(C=NOCCN2CCOCC2)cc1)NO

>  <pchembl_value_mean>  (49) 
4.56

>  <document_chembl_id>  (49) 
CHEMBL1153969

$$$$

     RDKit          2D

 29 31  0  0  0  0  0  0  0  0999 V2000
   14.4627   -7.1482    0.0000 C   0  0  0  0  0  0  0  0  0  0  0  0
   12.9955   -6.8363    0.0000 C   0  0  0  0  0  0  0  0  0  0  0  0
   11.9918   -7.9510    0.0000 N   0  0  0  0  0  0  0  0  0  0  0  0
   10.5000   -7.7942    0.0000 C   0  0  0  0  0  0  0  0  0  0  0  0
    9.7500   -6.4952    0.0000 S   0  0  0  0  0  0  0  0  0  0  0  0
    8.2500   -6.4952    0.0000 C   0  0  0  0  0  0  0  0  0  0  0  0
    7.5000   -5.1962    0.0000 C   0  0  0  0  0  0  0  0  0  0  0  0
    6.0000   -5.1962    0.0000 C   0  0  0  0  0  0  0  0  0  0  0  0
    5.2500   -3.8971    0.0000 C   0  0  0  0  0  0  0  0  0  0  0  0
    3.7500   -3.8971    0.0000 C   0  0  0  0  0  0  0  0  0  0  0  0
    3.0000   -2.5981    0.0000 C   0  0  0  0  0  0  0  0  0  0  0  0
    3.7500   -1.2990    0.0000 O   0  0  0  0  0  0  0  0  0  0  0  0
    1.5000   -2.5981    0.0000 N   0  0  0  0  0  0  0  0  0  0  0  0
    0.7500   -1.2990    0.0000 C   0  0  0  0  0  0  0  0  0  0  0  0
    1.5000    0.0000    0.0000 C   0  0  0  0  0  0  0  0  0  0  0  0
    0.7500    1.2990    0.0000 C   0  0  0  0  0  0  0  0  0  0  0  0
   -0.7500    1.2990    0.0000 C   0  0  0  0  0  0  0  0  0  0  0  0
   -1.5000    0.0000    0.0000 C   0  0  0  0  0  0  0  0  0  0  0  0
   -0.7500   -1.2990    0.0000 C   0  0  0  0  0  0  0  0  0  0  0  0
   -1.5000   -2.5981    0.0000 N   0  0  0  0  0  0  0  0  0  0  0  0
    9.8899   -9.1645    0.0000 N   0  0  0  0  0  0  0  0  0  0  0  0
   11.0046  -10.1682    0.0000 N   0  0  0  0  0  0  0  0  0  0  0  0
   12.3037   -9.4182    0.0000 C   0  0  0  0  0  0  0  0  0  0  0  0
   13.6740  -10.0283    0.0000 C   0  0  0  0  0  0  0  0  0  0  0  0
   13.8308  -11.5201    0.0000 C   0  0  0  0  0  0  0  0  0  0  0  0
   15.2011  -12.1302    0.0000 C   0  0  0  0  0  0  0  0  0  0  0  0
   16.4146  -11.2486    0.0000 N   0  0  0  0  0  0  0  0  0  0  0  0
   16.2578   -9.7568    0.0000 C   0  0  0  0  0  0  0  0  0  0  0  0
   14.8875   -9.1467    0.0000 C   0  0  0  0  0  0  0  0  0  0  0  0
  1  2  1  0
  2  3  1  0
  3  4  1  0
  4  5  1  0
  5  6  1  0
  6  7  1  0
  7  8  1  0
  8  9  1  0
  9 10  1  0
 10 11  1  0
 11 12  2  0
 11 13  1  0
 13 14  1  0
 14 15  2  0
 15 16  1  0
 16 17  2  0
 17 18  1  0
 18 19  2  0
 19 20  1  0
  4 21  2  0
 21 22  1  0
 22 23  2  0
 23 24  1  0
 24 25  2  0
 25 26  1  0
 26 27  2  0
 27 28  1  0
 28 29  2  0
 23  3  1  0
 29 24  1  0
 19 14  1  0
M  END
>  <molecule_chembl_id>  (50) 
CHEMBL4849632

>  <canonical_smiles>  (50) 
CCn1c(SCCCCCC(=O)Nc2ccccc2N)nnc1-c1ccncc1

>  <pchembl_value_mean>  (50) 
4.57

>  <document_chembl_id>  (50) 
CHEMBL4823270

$$$$

     RDKit          2D

 27 29  0  0  0  0  0  0  0  0999 V2000
    0.7500   -6.4952    0.0000 C   0  0  0  0  0  0  0  0  0  0  0  0
    1.5000   -5.1962    0.0000 C   0  0  0  0  0  0  0  0  0  0  0  0
    3.0000   -5.1962    0.0000 C   0  0  0  0  0  0  0  0  0  0  0  0
    3.7500   -6.4952    0.0000 N   0  0  0  0  0  0  0  0  0  0  0  0
    5.2418   -6.6520    0.0000 C   0  0  0  0  0  0  0  0  0  0  0  0
    5.5537   -8.1192    0.0000 C   0  0  0  0  0  0  0  0  0  0  0  0
    4.2546   -8.8692    0.0000 C   0  0  0  0  0  0  0  0  0  0  0  0
    3.1399   -7.8655    0.0000 C   0  0  0  0  0  0  0  0  0  0  0  0
    1.6727   -8.1774    0.0000 C   0  0  0  0  0  0  0  0  0  0  0  0
    0.7500   -3.8971    0.0000 N   0  0  0  0  0  0  0  0  0  0  0  0
    1.5000   -2.5981    0.0000 C   0  0  0  0  0  0  0  0  0  0  0  0
    3.0000   -2.5981    0.0000 O   0  0  0  0  0  0  0  0  0  0  0  0
    0.7500   -1.2990    0.0000 C   0  0  0  0  0  0  0  0  0  0  0  0
    1.5000    0.0000    0.0000 C   0  0  0  0  0  0  0  0  0  0  0  0
    0.7500    1.2990    0.0000 C   0  0  0  0  0  0  0  0  0  0  0  0
   -0.7500    1.2990    0.0000 C   0  0  0  0  0  0  0  0  0  0  0  0
   -1.5000    2.5981    0.0000 C   0  0  0  0  0  0  0  0  0  0  0  0
   -2.9918    2.7549    0.0000 N   0  0  0  0  0  0  0  0  0  0  0  0
   -3.3037    4.2221    0.0000 O   0  0  0  0  0  0  0  0  0  0  0  0
   -2.0046    4.9721    0.0000 C   0  0  0  0  0  0  0  0  0  0  0  0
   -1.8478    6.4639    0.0000 C   0  0  0  0  0  0  0  0  0  0  0  0
   -1.6910    7.9557    0.0000 F   0  0  0  0  0  0  0  0  0  0  0  0
   -0.3560    6.3071    0.0000 F   0  0  0  0  0  0  0  0  0  0  0  0
   -3.3396    6.6207    0.0000 F   0  0  0  0  0  0  0  0  0  0  0  0
   -0.8899    3.9684    0.0000 N   0  0  0  0  0  0  0  0  0  0  0  0
   -1.5000    0.0000    0.0000 C   0  0  0  0  0  0  0  0  0  0  0  0
   -0.7500   -1.2990    0.0000 C   0  0  0  0  0  0  0  0  0  0  0  0
  1  2  1  0
  2  3  1  0
  3  4  1  0
  4  5  1  0
  5  6  1  0
  6  7  1  0
  7  8  1  0
  8  9  1  0
  2 10  1  0
 10 11  1  0
 11 12  2  0
 11 13  1  0
 13 14  2  0
 14 15  1  0
 15 16  2  0
 16 17  1  0
 17 18  2  0
 18 19  1  0
 19 20  1  0
 20 21  1  0
 21 22  1  0
 21 23  1  0
 21 24  1  0
 20 25  2  0
 16 26  1  0
 26 27  2  0
  8  4  1  0
 27 13  1  0
 25 17  1  0
M  END
>  <molecule_chembl_id>  (51) 
CHEMBL4798111

>  <canonical_smiles>  (51) 
CC(CN1CCCC1C)NC(=O)c1ccc(-c2noc(C(F)(F)F)n2)cc1

>  <pchembl_value_mean>  (51) 
4.57

>  <document_chembl_id>  (51) 
CHEMBL4680373

$$$$

     RDKit          2D

 26 28  0  0  0  0  0  0  0  0999 V2000
   -0.0000   -5.1073    0.0000 C   0  0  0  0  0  0  0  0  0  0  0  0
   -0.0000   -3.6073    0.0000 C   0  0  0  0  0  0  0  0  0  0  0  0
    1.2135   -2.7256    0.0000 N   0  0  0  0  0  0  0  0  0  0  0  0
    0.7500   -1.2990    0.0000 C   0  0  0  0  0  0  0  0  0  0  0  0
    1.5000    0.0000    0.0000 C   0  0  0  0  0  0  0  0  0  0  0  0
    0.7500    1.2990    0.0000 C   0  0  0  0  0  0  0  0  0  0  0  0
    1.5000    2.5981    0.0000 O   0  0  0  0  0  0  0  0  0  0  0  0
   -0.7500    1.2990    0.0000 C   0  0  0  0  0  0  0  0  0  0  0  0
   -1.5000    0.0000    0.0000 C   0  0  0  0  0  0  0  0  0  0  0  0
   -0.7500   -1.2990    0.0000 C   0  0  0  0  0  0  0  0  0  0  0  0
   -1.2135   -2.7256    0.0000 C   0  0  0  0  0  0  0  0  0  0  0  0
   -2.6401   -3.1891    0.0000 C   0  0  0  0  0  0  0  0  0  0  0  0
   -2.9520   -4.6564    0.0000 C   0  0  0  0  0  0  0  0  0  0  0  0
   -4.3786   -5.1199    0.0000 N   0  0  0  0  0  0  0  0  0  0  0  0
   -4.6904   -6.5871    0.0000 C   0  0  0  0  0  0  0  0  0  0  0  0
   -6.1170   -7.0506    0.0000 C   0  0  0  0  0  0  0  0  0  0  0  0
   -7.2317   -6.0469    0.0000 C   0  0  0  0  0  0  0  0  0  0  0  0
   -8.6583   -6.5105    0.0000 C   0  0  0  0  0  0  0  0  0  0  0  0
   -8.9702   -7.9777    0.0000 C   0  0  0  0  0  0  0  0  0  0  0  0
  -10.3968   -8.4412    0.0000 C   0  0  0  0  0  0  0  0  0  0  0  0
  -11.5115   -7.4375    0.0000 C   0  0  0  0  0  0  0  0  0  0  0  0
  -12.9381   -7.9010    0.0000 C   0  0  0  0  0  0  0  0  0  0  0  0
  -14.0528   -6.8974    0.0000 N   0  0  0  0  0  0  0  0  0  0  0  0
  -13.2499   -9.3683    0.0000 O   0  0  0  0  0  0  0  0  0  0  0  0
   -7.8555   -8.9814    0.0000 C   0  0  0  0  0  0  0  0  0  0  0  0
   -6.4289   -8.5179    0.0000 C   0  0  0  0  0  0  0  0  0  0  0  0
  1  2  1  0
  2  3  1  0
  3  4  1  0
  4  5  2  0
  5  6  1  0
  6  7  1  0
  6  8  2  0
  8  9  1  0
  9 10  2  0
 10 11  1  0
 11 12  1  0
 12 13  1  0
 13 14  1  0
 14 15  1  0
 15 16  1  0
 16 17  2  0
 17 18  1  0
 18 19  2  0
 19 20  1  0
 20 21  2  3
 21 22  1  0
 22 23  1  0
 22 24  2  0
 19 25  1  0
 25 26  2  0
 11  2  2  0
 26 16  1  0
 10  4  1  0
M  END
>  <molecule_chembl_id>  (52) 
CHEMBL3526942

>  <canonical_smiles>  (52) 
Cc1[nH]c2cc(O)ccc2c1CCNCc1ccc(C=CC(N)=O)cc1

>  <pchembl_value_mean>  (52) 
4.57

>  <document_chembl_id>  (52) 
CHEMBL3526051

$$$$

     RDKit          2D

 26 29  0  0  0  0  0  0  0  0999 V2000
    8.6911   -6.2025    0.0000 O   0  0  0  0  0  0  0  0  0  0  0  0
    7.2287   -6.5363    0.0000 C   0  0  0  0  0  0  0  0  0  0  0  0
    6.7865   -7.9697    0.0000 N   0  0  0  0  0  0  0  0  0  0  0  0
    7.8068   -9.0693    0.0000 O   0  0  0  0  0  0  0  0  0  0  0  0
    6.2084   -5.4367    0.0000 C   0  0  0  0  0  0  0  0  0  0  0  0
    4.7460   -5.7705    0.0000 C   0  0  0  0  0  0  0  0  0  0  0  0
    3.7258   -4.6709    0.0000 C   0  0  0  0  0  0  0  0  0  0  0  0
    4.1679   -3.2376    0.0000 C   0  0  0  0  0  0  0  0  0  0  0  0
    3.1476   -2.1380    0.0000 C   0  0  0  0  0  0  0  0  0  0  0  0
    1.6852   -2.4718    0.0000 N   0  0  0  0  0  0  0  0  0  0  0  0
    0.7500   -1.2990    0.0000 C   0  0  0  0  0  0  0  0  0  0  0  0
    1.5000    0.0000    0.0000 C   0  0  0  0  0  0  0  0  0  0  0  0
    0.7500    1.2990    0.0000 C   0  0  0  0  0  0  0  0  0  0  0  0
   -0.7500    1.2990    0.0000 C   0  0  0  0  0  0  0  0  0  0  0  0
   -1.5000    0.0000    0.0000 C   0  0  0  0  0  0  0  0  0  0  0  0
   -0.7500   -1.2990    0.0000 C   0  0  0  0  0  0  0  0  0  0  0  0
   -1.6852   -2.4718    0.0000 C   0  0  0  0  0  0  0  0  0  0  0  0
   -1.3515   -3.9342    0.0000 C   0  0  0  0  0  0  0  0  0  0  0  0
    0.0000   -4.5850    0.0000 C   0  0  0  0  0  0  0  0  0  0  0  0
   -0.1121   -6.0808    0.0000 C   0  0  0  0  0  0  0  0  0  0  0  0
    1.1273   -6.9258    0.0000 C   0  0  0  0  0  0  0  0  0  0  0  0
    2.4787   -6.2750    0.0000 C   0  0  0  0  0  0  0  0  0  0  0  0
    2.5908   -4.7792    0.0000 C   0  0  0  0  0  0  0  0  0  0  0  0
    1.3515   -3.9342    0.0000 C   0  0  0  0  0  0  0  0  0  0  0  0
    5.6303   -2.9038    0.0000 C   0  0  0  0  0  0  0  0  0  0  0  0
    6.6505   -4.0034    0.0000 C   0  0  0  0  0  0  0  0  0  0  0  0
  1  2  2  0
  2  3  1  0
  3  4  1  0
  2  5  1  0
  5  6  2  0
  6  7  1  0
  7  8  2  0
  8  9  1  0
  9 10  1  0
 10 11  1  0
 11 12  2  0
 12 13  1  0
 13 14  2  0
 14 15  1  0
 15 16  2  0
 16 17  1  0
 17 18  1  0
 18 19  1  0
 19 20  1  0
 20 21  1  0
 21 22  1  0
 22 23  1  0
 23 24  1  0
  8 25  1  0
 25 26  2  0
 26  5  1  0
 24 10  1  0
 16 11  1  0
 24 19  1  0
M  END
>  <molecule_chembl_id>  (53) 
CHEMBL4469098

>  <canonical_smiles>  (53) 
O=C(NO)c1ccc(CN2c3ccccc3CCC3CCCCC32)cc1

>  <pchembl_value_mean>  (53) 
4.58

>  <document_chembl_id>  (53) 
CHEMBL4422610

$$$$

     RDKit          2D

 18 18  0  0  0  0  0  0  0  0999 V2000
   12.7500   -6.4952    0.0000 O   0  0  0  0  0  0  0  0  0  0  0  0
   12.0000   -5.1962    0.0000 C   0  0  0  0  0  0  0  0  0  0  0  0
   10.5000   -5.1962    0.0000 N   0  0  0  0  0  0  0  0  0  0  0  0
    9.7500   -6.4952    0.0000 O   0  0  0  0  0  0  0  0  0  0  0  0
    9.7500   -3.8971    0.0000 C   0  0  0  0  0  0  0  0  0  0  0  0
    8.2500   -3.8971    0.0000 C   0  0  0  0  0  0  0  0  0  0  0  0
    7.5000   -2.5981    0.0000 C   0  0  0  0  0  0  0  0  0  0  0  0
    6.0000   -2.5981    0.0000 C   0  0  0  0  0  0  0  0  0  0  0  0
    5.2500   -1.2990    0.0000 C   0  0  0  0  0  0  0  0  0  0  0  0
    3.7500   -1.2990    0.0000 N   0  0  0  0  0  0  0  0  0  0  0  0
    3.0000    0.0000    0.0000 C   0  0  0  0  0  0  0  0  0  0  0  0
    3.7500    1.2990    0.0000 O   0  0  0  0  0  0  0  0  0  0  0  0
    1.5000    0.0000    0.0000 C   0  0  0  0  0  0  0  0  0  0  0  0
    0.7500   -1.2990    0.0000 C   0  0  0  0  0  0  0  0  0  0  0  0
   -0.7500   -1.2990    0.0000 C   0  0  0  0  0  0  0  0  0  0  0  0
   -1.5000    0.0000    0.0000 C   0  0  0  0  0  0  0  0  0  0  0  0
   -0.7500    1.2990    0.0000 C   0  0  0  0  0  0  0  0  0  0  0  0
    0.7500    1.2990    0.0000 C   0  0  0  0  0  0  0  0  0  0  0  0
  1  2  2  0
  2  3  1  0
  3  4  1  0
  3  5  1  0
  5  6  1  0
  6  7  1  0
  7  8  1  0
  8  9  1  0
  9 10  1  0
 10 11  1  0
 11 12  2  0
 11 13  1  0
 13 14  2  0
 14 15  1  0
 15 16  2  0
 16 17  1  0
 17 18  2  0
 18 13  1  0
M  END
>  <molecule_chembl_id>  (54) 
CHEMBL337584

>  <canonical_smiles>  (54) 
O=CN(O)CCCCCNC(=O)c1ccccc1

>  <pchembl_value_mean>  (54) 
4.58

>  <document_chembl_id>  (54) 
CHEMBL1137945

$$$$

     RDKit          2D

 22 23  0  0  0  0  0  0  0  0999 V2000
   -1.0409   -5.7068    0.0000 C   0  0  0  0  0  0  0  0  0  0  0  0
   -0.5773   -4.2803    0.0000 C   0  0  0  0  0  0  0  0  0  0  0  0
    0.8899   -3.9684    0.0000 N   0  0  0  0  0  0  0  0  0  0  0  0
    2.0046   -4.9721    0.0000 C   0  0  0  0  0  0  0  0  0  0  0  0
    1.8478   -6.4639    0.0000 S   0  0  0  0  0  0  0  0  0  0  0  0
    3.0613   -7.3456    0.0000 C   0  0  0  0  0  0  0  0  0  0  0  0
    2.9046   -8.8373    0.0000 C   0  0  0  0  0  0  0  0  0  0  0  0
    4.1181   -9.7190    0.0000 C   0  0  0  0  0  0  0  0  0  0  0  0
    3.9613  -11.2108    0.0000 C   0  0  0  0  0  0  0  0  0  0  0  0
    5.1748  -12.0925    0.0000 C   0  0  0  0  0  0  0  0  0  0  0  0
    5.0180  -13.5843    0.0000 C   0  0  0  0  0  0  0  0  0  0  0  0
    3.6477  -14.1944    0.0000 O   0  0  0  0  0  0  0  0  0  0  0  0
    6.2315  -14.4659    0.0000 O   0  0  0  0  0  0  0  0  0  0  0  0
    3.3037   -4.2221    0.0000 N   0  0  0  0  0  0  0  0  0  0  0  0
    2.9918   -2.7549    0.0000 N   0  0  0  0  0  0  0  0  0  0  0  0
    1.5000   -2.5981    0.0000 C   0  0  0  0  0  0  0  0  0  0  0  0
    0.7500   -1.2990    0.0000 C   0  0  0  0  0  0  0  0  0  0  0  0
    1.5000    0.0000    0.0000 C   0  0  0  0  0  0  0  0  0  0  0  0
    0.7500    1.2990    0.0000 C   0  0  0  0  0  0  0  0  0  0  0  0
   -0.7500    1.2990    0.0000 N   0  0  0  0  0  0  0  0  0  0  0  0
   -1.5000    0.0000    0.0000 C   0  0  0  0  0  0  0  0  0  0  0  0
   -0.7500   -1.2990    0.0000 C   0  0  0  0  0  0  0  0  0  0  0  0
  1  2  1  0
  2  3  1  0
  3  4  1  0
  4  5  1  0
  5  6  1  0
  6  7  1  0
  7  8  1  0
  8  9  1  0
  9 10  1  0
 10 11  1  0
 11 12  2  0
 11 13  1  0
  4 14  2  0
 14 15  1  0
 15 16  2  0
 16 17  1  0
 17 18  2  0
 18 19  1  0
 19 20  2  0
 20 21  1  0
 21 22  2  0
 16  3  1  0
 22 17  1  0
M  END
>  <molecule_chembl_id>  (55) 
CHEMBL4859191

>  <canonical_smiles>  (55) 
CCn1c(SCCCCCC(=O)O)nnc1-c1ccncc1

>  <pchembl_value_mean>  (55) 
4.58

>  <document_chembl_id>  (55) 
CHEMBL4823270

$$$$

     RDKit          2D

 25 27  0  0  0  0  0  0  0  0999 V2000
    3.0000   -2.5981    0.0000 O   0  0  0  0  0  0  0  0  0  0  0  0
    1.5000   -2.5981    0.0000 C   0  0  0  0  0  0  0  0  0  0  0  0
    0.7500   -3.8971    0.0000 N   0  0  0  0  0  0  0  0  0  0  0  0
    1.5000   -5.1962    0.0000 C   0  0  0  0  0  0  0  0  0  0  0  0
    0.7500   -6.4952    0.0000 C   0  0  0  0  0  0  0  0  0  0  0  0
    1.5000   -7.7942    0.0000 N   0  0  0  0  0  0  0  0  0  0  0  0
    2.9918   -7.9510    0.0000 C   0  0  0  0  0  0  0  0  0  0  0  0
    3.3037   -9.4182    0.0000 C   0  0  0  0  0  0  0  0  0  0  0  0
    2.0046  -10.1682    0.0000 C   0  0  0  0  0  0  0  0  0  0  0  0
    0.8899   -9.1645    0.0000 C   0  0  0  0  0  0  0  0  0  0  0  0
    0.7500   -1.2990    0.0000 C   0  0  0  0  0  0  0  0  0  0  0  0
    1.5000    0.0000    0.0000 C   0  0  0  0  0  0  0  0  0  0  0  0
    0.7500    1.2990    0.0000 C   0  0  0  0  0  0  0  0  0  0  0  0
   -0.7500    1.2990    0.0000 C   0  0  0  0  0  0  0  0  0  0  0  0
   -1.5000    2.5981    0.0000 C   0  0  0  0  0  0  0  0  0  0  0  0
   -2.9918    2.7549    0.0000 N   0  0  0  0  0  0  0  0  0  0  0  0
   -3.3037    4.2221    0.0000 O   0  0  0  0  0  0  0  0  0  0  0  0
   -2.0046    4.9721    0.0000 C   0  0  0  0  0  0  0  0  0  0  0  0
   -1.8478    6.4639    0.0000 C   0  0  0  0  0  0  0  0  0  0  0  0
   -1.6910    7.9557    0.0000 F   0  0  0  0  0  0  0  0  0  0  0  0
   -0.3560    6.3071    0.0000 F   0  0  0  0  0  0  0  0  0  0  0  0
   -3.3396    6.6207    0.0000 F   0  0  0  0  0  0  0  0  0  0  0  0
   -0.8899    3.9684    0.0000 N   0  0  0  0  0  0  0  0  0  0  0  0
   -1.5000    0.0000    0.0000 C   0  0  0  0  0  0  0  0  0  0  0  0
   -0.7500   -1.2990    0.0000 C   0  0  0  0  0  0  0  0  0  0  0  0
  1  2  2  0
  2  3  1  0
  3  4  1  0
  4  5  1  0
  5  6  1  0
  6  7  1  0
  7  8  1  0
  8  9  1  0
  9 10  1  0
  2 11  1  0
 11 12  2  0
 12 13  1  0
 13 14  2  0
 14 15  1  0
 15 16  2  0
 16 17  1  0
 17 18  1  0
 18 19  1  0
 19 20  1  0
 19 21  1  0
 19 22  1  0
 18 23  2  0
 14 24  1  0
 24 25  2  0
 10  6  1  0
 25 11  1  0
 23 15  1  0
M  END
>  <molecule_chembl_id>  (56) 
CHEMBL4747488

>  <canonical_smiles>  (56) 
O=C(NCCN1CCCC1)c1ccc(-c2noc(C(F)(F)F)n2)cc1

>  <pchembl_value_mean>  (56) 
4.58

>  <document_chembl_id>  (56) 
CHEMBL4680373

$$$$

     RDKit          2D

 42 47  0  0  0  0  0  0  0  0999 V2000
    1.5000   -7.7942    0.0000 C   0  0  0  0  0  0  0  0  0  0  0  0
    0.7500   -6.4952    0.0000 C   0  0  0  0  0  0  0  0  0  0  0  0
    1.5000   -5.1962    0.0000 C   0  0  0  0  0  0  0  0  0  0  0  0
    3.0000   -5.1962    0.0000 N   0  0  0  0  0  0  0  0  0  0  0  0
    3.7500   -6.4952    0.0000 C   0  0  0  0  0  0  0  0  0  0  0  0
    3.0000   -7.7942    0.0000 N   0  0  0  0  0  0  0  0  0  0  0  0
    3.7500   -9.0933    0.0000 C   0  0  0  0  0  0  0  0  0  0  0  0
    5.2500   -9.0933    0.0000 N   0  0  0  0  0  0  0  0  0  0  0  0
    6.0000   -7.7942    0.0000 C   0  0  0  0  0  0  0  0  0  0  0  0
    7.4672   -7.4824    0.0000 N   0  0  0  0  0  0  0  0  0  0  0  0
    7.6240   -5.9906    0.0000 C   0  0  0  0  0  0  0  0  0  0  0  0
    6.2537   -5.3805    0.0000 N   0  0  0  0  0  0  0  0  0  0  0  0
    5.2500   -6.4952    0.0000 C   0  0  0  0  0  0  0  0  0  0  0  0
    0.7500   -3.8971    0.0000 C   0  0  0  0  0  0  0  0  0  0  0  0
    1.5000   -2.5981    0.0000 N   0  0  0  0  0  0  0  0  0  0  0  0
    0.7500   -1.2990    0.0000 C   0  0  0  0  0  0  0  0  0  0  0  0
    1.5000    0.0000    0.0000 C   0  0  0  0  0  0  0  0  0  0  0  0
    0.7500    1.2990    0.0000 C   0  0  0  0  0  0  0  0  0  0  0  0
   -0.7500    1.2990    0.0000 C   0  0  0  0  0  0  0  0  0  0  0  0
   -1.5000    0.0000    0.0000 C   0  0  0  0  0  0  0  0  0  0  0  0
   -3.0000    0.0000    0.0000 C   0  0  0  0  0  0  0  0  0  0  0  0
   -3.7500    1.2990    0.0000 N   0  0  0  0  0  0  0  0  0  0  0  0
   -5.2500    1.2990    0.0000 C   0  0  0  0  0  0  0  0  0  0  0  0
   -6.0000    2.5981    0.0000 N   0  0  0  0  0  0  0  0  0  0  0  0
   -7.5000    2.5981    0.0000 C   0  0  0  0  0  0  0  0  0  0  0  0
   -8.2500    1.2990    0.0000 C   0  0  0  0  0  0  0  0  0  0  0  0
   -9.7500    1.2990    0.0000 C   0  0  0  0  0  0  0  0  0  0  0  0
  -10.5000    0.0000    0.0000 O   0  0  0  0  0  0  0  0  0  0  0  0
  -10.5000    2.5981    0.0000 N   0  0  0  0  0  0  0  0  0  0  0  0
  -12.0000    2.5981    0.0000 O   0  0  0  0  0  0  0  0  0  0  0  0
   -7.5000    0.0000    0.0000 C   0  0  0  0  0  0  0  0  0  0  0  0
   -6.0000    0.0000    0.0000 N   0  0  0  0  0  0  0  0  0  0  0  0
   -0.7500   -1.2990    0.0000 C   0  0  0  0  0  0  0  0  0  0  0  0
   -1.5000   -2.5981    0.0000 C   0  0  0  0  0  0  0  0  0  0  0  0
   -3.0000   -2.5981    0.0000 O   0  0  0  0  0  0  0  0  0  0  0  0
   -0.7500   -3.8971    0.0000 N   0  0  0  0  0  0  0  0  0  0  0  0
   -1.5000   -5.1962    0.0000 C   0  0  0  0  0  0  0  0  0  0  0  0
   -3.0000   -5.1962    0.0000 C   0  0  0  0  0  0  0  0  0  0  0  0
   -3.7500   -6.4952    0.0000 C   0  0  0  0  0  0  0  0  0  0  0  0
   -3.0000   -7.7942    0.0000 C   0  0  0  0  0  0  0  0  0  0  0  0
   -1.5000   -7.7942    0.0000 C   0  0  0  0  0  0  0  0  0  0  0  0
   -0.7500   -6.4952    0.0000 C   0  0  0  0  0  0  0  0  0  0  0  0
  1  2  1  0
  2  3  1  0
  3  4  1  0
  4  5  1  0
  5  6  2  0
  6  7  1  0
  7  8  2  0
  8  9  1  0
  9 10  1  0
 10 11  1  0
 11 12  2  0
 12 13  1  0
  3 14  1  0
 14 15  2  0
 15 16  1  0
 16 17  2  0
 17 18  1  0
 18 19  2  0
 19 20  1  0
 20 21  1  0
 21 22  1  0
 22 23  1  0
 23 24  2  0
 24 25  1  0
 25 26  2  0
 26 27  1  0
 27 28  2  0
 27 29  1  0
 29 30  1  0
 26 31  1  0
 31 32  2  0
 20 33  2  0
 33 34  1  0
 34 35  2  0
 34 36  1  0
 36 37  1  0
 37 38  2  0
 38 39  1  0
 39 40  2  0
 40 41  1  0
 41 42  2  0
 13  5  1  0
 36 14  1  0
 42 37  1  0
 13  9  2  0
 33 16  1  0
 32 23  1  0
M  END
>  <molecule_chembl_id>  (57) 
CHEMBL4581057

>  <canonical_smiles>  (57) 
CCC(Nc1ncnc2[nH]cnc12)c1nc2cccc(CNc3ncc(C(=O)NO)cn3)c2c(=O)n1-c1ccccc1

>  <pchembl_value_mean>  (57) 
4.59

>  <document_chembl_id>  (57) 
CHEMBL4402587

$$$$

     RDKit          2D

 41 43  0  0  0  0  0  0  0  0999 V2000
   22.7824    8.0713    0.0000 C   0  0  0  0  0  0  0  0  0  0  0  0
   21.7217    7.0106    0.0000 C   0  0  0  0  0  0  0  0  0  0  0  0
   20.2728    7.3989    0.0000 C   0  0  0  0  0  0  0  0  0  0  0  0
   19.2122    6.3382    0.0000 C   0  0  0  0  0  0  0  0  0  0  0  0
   17.7633    6.7264    0.0000 C   0  0  0  0  0  0  0  0  0  0  0  0
   16.7026    5.6658    0.0000 C   0  0  0  0  0  0  0  0  0  0  0  0
   15.2537    6.0540    0.0000 C   0  0  0  0  0  0  0  0  0  0  0  0
   14.1931    4.9933    0.0000 C   0  0  0  0  0  0  0  0  0  0  0  0
   14.5813    3.5444    0.0000 O   0  0  0  0  0  0  0  0  0  0  0  0
   12.7442    5.3816    0.0000 S   0  0  0  0  0  0  0  0  0  0  0  0
   11.6835    4.3209    0.0000 C   0  0  0  0  0  0  0  0  0  0  0  0
   10.2346    4.7091    0.0000 C   0  0  0  0  0  0  0  0  0  0  0  0
    9.1740    3.6485    0.0000 C   0  0  0  0  0  0  0  0  0  0  0  0
    7.7251    4.0367    0.0000 C   0  0  0  0  0  0  0  0  0  0  0  0
    6.6644    2.9760    0.0000 C   0  0  0  0  0  0  0  0  0  0  0  0
    5.4172    3.8094    0.0000 C   0  0  0  0  0  0  0  0  0  0  0  0
    3.9460    4.1020    0.0000 C   0  0  0  0  0  0  0  0  0  0  0  0
    3.9460    5.6020    0.0000 O   0  0  0  0  0  0  0  0  0  0  0  0
    2.4749    3.8094    0.0000 N   0  0  0  0  0  0  0  0  0  0  0  0
    1.2277    2.9760    0.0000 C   0  0  0  0  0  0  0  0  0  0  0  0
    0.3943    1.2135    0.0000 C   0  0  0  0  0  0  0  0  0  0  0  0
    1.2760    0.0000    0.0000 N   0  0  0  0  0  0  0  0  0  0  0  0
    0.3943   -1.2135    0.0000 C   0  0  0  0  0  0  0  0  0  0  0  0
   -1.0323   -0.7500    0.0000 C   0  0  0  0  0  0  0  0  0  0  0  0
   -1.0323    0.7500    0.0000 S   0  0  0  0  0  0  0  0  0  0  0  0
    1.2277   -2.4607    0.0000 C   0  0  0  0  0  0  0  0  0  0  0  0
    0.0497   -3.3894    0.0000 N   0  0  0  0  0  0  0  0  0  0  0  0
    0.5689   -4.7967    0.0000 N   0  0  0  0  0  0  0  0  0  0  0  0
    2.0677   -4.7378    0.0000 N   0  0  0  0  0  0  0  0  0  0  0  0
    2.4749   -3.2941    0.0000 N   0  0  0  0  0  0  0  0  0  0  0  0
    3.9460   -3.5867    0.0000 C   0  0  0  0  0  0  0  0  0  0  0  0
    5.4172   -3.2941    0.0000 C   0  0  0  0  0  0  0  0  0  0  0  0
    5.9912   -4.6799    0.0000 O   0  0  0  0  0  0  0  0  0  0  0  0
    6.6644   -2.4607    0.0000 N   0  0  0  0  0  0  0  0  0  0  0  0
    7.4978   -1.2135    0.0000 C   0  0  0  0  0  0  0  0  0  0  0  0
    8.8836   -1.7876    0.0000 C   0  0  0  0  0  0  0  0  0  0  0  0
    9.0794   -3.2747    0.0000 C   0  0  0  0  0  0  0  0  0  0  0  0
   10.0736   -0.8744    0.0000 C   0  0  0  0  0  0  0  0  0  0  0  0
    7.7904    0.2577    0.0000 C   0  0  0  0  0  0  0  0  0  0  0  0
    9.2904    0.2577    0.0000 O   0  0  0  0  0  0  0  0  0  0  0  0
    7.4978    1.7288    0.0000 O   0  0  0  0  0  0  0  0  0  0  0  0
  1  2  1  0
  2  3  1  0
  3  4  1  0
  4  5  1  0
  5  6  1  0
  6  7  1  0
  7  8  1  0
  8  9  2  0
  8 10  1  0
 10 11  1  0
 11 12  1  0
 12 13  1  0
 13 14  2  3
 14 15  1  0
 15 16  1  0
 16 17  1  0
 17 18  2  0
 17 19  1  0
 19 20  1  0
 20 21  1  0
 21 22  2  0
 22 23  1  0
 23 24  2  0
 24 25  1  0
 23 26  1  0
 26 27  2  0
 27 28  1  0
 28 29  2  0
 29 30  1  0
 30 31  1  0
 31 32  1  0
 32 33  2  0
 32 34  1  0
 34 35  1  0
 35 36  1  0
 36 37  1  0
 36 38  1  0
 35 39  1  0
 39 40  2  0
 39 41  1  0
 41 15  1  0
 25 21  1  0
 30 26  1  0
M  END
>  <molecule_chembl_id>  (58) 
CHEMBL2323287

>  <canonical_smiles>  (58) 
CCCCCCCC(=O)SCCC=CC1CC(=O)NCc2nc(cs2)-c2nnnn2CC(=O)NC(C(C)C)C(=O)O1

>  <pchembl_value_mean>  (58) 
4.6

>  <document_chembl_id>  (58) 
CHEMBL2321647

$$$$

     RDKit          2D

 25 28  0  0  0  0  0  0  0  0999 V2000
   -1.6839   -7.2010    0.0000 C   0  0  0  0  0  0  0  0  0  0  0  0
   -1.5271   -5.7092    0.0000 N   0  0  0  0  0  0  0  0  0  0  0  0
   -2.7406   -4.8275    0.0000 C   0  0  0  0  0  0  0  0  0  0  0  0
   -2.5838   -3.3357    0.0000 C   0  0  0  0  0  0  0  0  0  0  0  0
   -1.2135   -2.7256    0.0000 C   0  0  0  0  0  0  0  0  0  0  0  0
   -0.0000   -3.6073    0.0000 C   0  0  0  0  0  0  0  0  0  0  0  0
    1.2135   -2.7256    0.0000 N   0  0  0  0  0  0  0  0  0  0  0  0
    2.6401   -3.1891    0.0000 C   0  0  0  0  0  0  0  0  0  0  0  0
    2.9520   -4.6564    0.0000 C   0  0  0  0  0  0  0  0  0  0  0  0
    1.8373   -5.6601    0.0000 C   0  0  0  0  0  0  0  0  0  0  0  0
    2.1491   -7.1273    0.0000 C   0  0  0  0  0  0  0  0  0  0  0  0
    3.5757   -7.5908    0.0000 C   0  0  0  0  0  0  0  0  0  0  0  0
    3.8876   -9.0580    0.0000 C   0  0  0  0  0  0  0  0  0  0  0  0
    5.3142   -9.5216    0.0000 O   0  0  0  0  0  0  0  0  0  0  0  0
    2.7729  -10.0617    0.0000 N   0  0  0  0  0  0  0  0  0  0  0  0
    3.0847  -11.5290    0.0000 O   0  0  0  0  0  0  0  0  0  0  0  0
    4.6904   -6.5871    0.0000 C   0  0  0  0  0  0  0  0  0  0  0  0
    4.3786   -5.1199    0.0000 C   0  0  0  0  0  0  0  0  0  0  0  0
    0.7500   -1.2990    0.0000 C   0  0  0  0  0  0  0  0  0  0  0  0
    1.5000    0.0000    0.0000 C   0  0  0  0  0  0  0  0  0  0  0  0
    0.7500    1.2990    0.0000 C   0  0  0  0  0  0  0  0  0  0  0  0
   -0.7500    1.2990    0.0000 C   0  0  0  0  0  0  0  0  0  0  0  0
   -1.5000    0.0000    0.0000 C   0  0  0  0  0  0  0  0  0  0  0  0
   -0.7500   -1.2990    0.0000 C   0  0  0  0  0  0  0  0  0  0  0  0
   -0.1568   -5.0991    0.0000 C   0  0  0  0  0  0  0  0  0  0  0  0
  1  2  1  0
  2  3  1  0
  3  4  1  0
  4  5  1  0
  5  6  2  0
  6  7  1  0
  7  8  1  0
  8  9  1  0
  9 10  2  0
 10 11  1  0
 11 12  2  0
 12 13  1  0
 13 14  2  0
 13 15  1  0
 15 16  1  0
 12 17  1  0
 17 18  2  0
  7 19  1  0
 19 20  2  0
 20 21  1  0
 21 22  2  0
 22 23  1  0
 23 24  2  0
  6 25  1  0
 25  2  1  0
 24  5  1  0
 18  9  1  0
 24 19  1  0
M  END
>  <molecule_chembl_id>  (59) 
CHEMBL2018451

>  <canonical_smiles>  (59) 
CN1CCc2c(n(Cc3ccc(C(=O)NO)cc3)c3ccccc23)C1

>  <pchembl_value_mean>  (59) 
4.6

>  <document_chembl_id>  (59) 
CHEMBL4385610

$$$$

     RDKit          2D

 34 35  0  0  0  0  0  0  0  0999 V2000
    3.0000  -23.3827    0.0000 O   0  0  0  0  0  0  0  0  0  0  0  0
    1.5000  -23.3827    0.0000 C   0  0  0  0  0  0  0  0  0  0  0  0
    0.7500  -22.0836    0.0000 C   0  0  0  0  0  0  0  0  0  0  0  0
    1.5000  -20.7846    0.0000 C   0  0  0  0  0  0  0  0  0  0  0  0
    3.0000  -20.7846    0.0000 O   0  0  0  0  0  0  0  0  0  0  0  0
    0.7500  -19.4856    0.0000 C   0  0  0  0  0  0  0  0  0  0  0  0
    1.5000  -18.1865    0.0000 C   0  0  0  0  0  0  0  0  0  0  0  0
    0.7500  -16.8875    0.0000 C   0  0  0  0  0  0  0  0  0  0  0  0
    1.5000  -15.5885    0.0000 C   0  0  0  0  0  0  0  0  0  0  0  0
    0.7500  -14.2894    0.0000 S   0  0  0  0  0  0  0  0  0  0  0  0
    1.5000  -12.9904    0.0000 S   0  0  0  0  0  0  0  0  0  0  0  0
    0.7500  -11.6913    0.0000 C   0  0  0  0  0  0  0  0  0  0  0  0
    1.5000  -10.3923    0.0000 C   0  0  0  0  0  0  0  0  0  0  0  0
    0.7500   -9.0933    0.0000 C   0  0  0  0  0  0  0  0  0  0  0  0
    1.5000   -7.7942    0.0000 C   0  0  0  0  0  0  0  0  0  0  0  0
    0.7500   -6.4952    0.0000 C   0  0  0  0  0  0  0  0  0  0  0  0
   -0.7500   -6.4952    0.0000 O   0  0  0  0  0  0  0  0  0  0  0  0
    1.5000   -5.1962    0.0000 C   0  0  0  0  0  0  0  0  0  0  0  0
    0.7500   -3.8971    0.0000 C   0  0  0  0  0  0  0  0  0  0  0  0
   -0.7500   -3.8971    0.0000 O   0  0  0  0  0  0  0  0  0  0  0  0
    1.5000   -2.5981    0.0000 N   0  0  0  0  0  0  0  0  0  0  0  0
    0.7500   -1.2990    0.0000 C   0  0  0  0  0  0  0  0  0  0  0  0
    1.5000    0.0000    0.0000 C   0  0  0  0  0  0  0  0  0  0  0  0
    0.7500    1.2990    0.0000 C   0  0  0  0  0  0  0  0  0  0  0  0
   -0.7500    1.2990    0.0000 C   0  0  0  0  0  0  0  0  0  0  0  0
   -1.5000    0.0000    0.0000 C   0  0  0  0  0  0  0  0  0  0  0  0
   -0.7500   -1.2990    0.0000 C   0  0  0  0  0  0  0  0  0  0  0  0
    0.7500  -24.6817    0.0000 N   0  0  0  0  0  0  0  0  0  0  0  0
    1.5000  -25.9808    0.0000 C   0  0  0  0  0  0  0  0  0  0  0  0
    0.7500  -27.2798    0.0000 C   0  0  0  0  0  0  0  0  0  0  0  0
    1.5000  -28.5788    0.0000 C   0  0  0  0  0  0  0  0  0  0  0  0
    3.0000  -28.5788    0.0000 C   0  0  0  0  0  0  0  0  0  0  0  0
    3.7500  -27.2798    0.0000 C   0  0  0  0  0  0  0  0  0  0  0  0
    3.0000  -25.9808    0.0000 C   0  0  0  0  0  0  0  0  0  0  0  0
  1  2  2  0
  2  3  1  0
  3  4  1  0
  4  5  1  0
  4  6  1  0
  6  7  2  3
  7  8  1  0
  8  9  1  0
  9 10  1  0
 10 11  1  0
 11 12  1  0
 12 13  1  0
 13 14  1  0
 14 15  2  3
 15 16  1  0
 16 17  1  0
 16 18  1  0
 18 19  1  0
 19 20  2  0
 19 21  1  0
 21 22  1  0
 22 23  2  0
 23 24  1  0
 24 25  2  0
 25 26  1  0
 26 27  2  0
  2 28  1  0
 28 29  1  0
 29 30  2  0
 30 31  1  0
 31 32  2  0
 32 33  1  0
 33 34  2  0
 27 22  1  0
 34 29  1  0
M  END
>  <molecule_chembl_id>  (60) 
CHEMBL5084611

>  <canonical_smiles>  (60) 
O=C(CC(O)C=CCCSSCCC=CC(O)CC(=O)Nc1ccccc1)Nc1ccccc1

>  <pchembl_value_mean>  (60) 
4.6

>  <document_chembl_id>  (60) 
CHEMBL5046273

$$$$

     RDKit          2D

 28 31  0  0  0  0  0  0  0  0999 V2000
    8.6911   -6.2025    0.0000 O   0  0  0  0  0  0  0  0  0  0  0  0
    7.2287   -6.5363    0.0000 C   0  0  0  0  0  0  0  0  0  0  0  0
    6.7865   -7.9697    0.0000 N   0  0  0  0  0  0  0  0  0  0  0  0
    7.8068   -9.0693    0.0000 O   0  0  0  0  0  0  0  0  0  0  0  0
    6.2084   -5.4367    0.0000 C   0  0  0  0  0  0  0  0  0  0  0  0
    4.7460   -5.7705    0.0000 C   0  0  0  0  0  0  0  0  0  0  0  0
    3.7258   -4.6709    0.0000 C   0  0  0  0  0  0  0  0  0  0  0  0
    4.1679   -3.2376    0.0000 C   0  0  0  0  0  0  0  0  0  0  0  0
    3.1476   -2.1380    0.0000 C   0  0  0  0  0  0  0  0  0  0  0  0
    1.6852   -2.4718    0.0000 N   0  0  0  0  0  0  0  0  0  0  0  0
    0.7500   -1.2990    0.0000 C   0  0  0  0  0  0  0  0  0  0  0  0
    1.5000    0.0000    0.0000 C   0  0  0  0  0  0  0  0  0  0  0  0
    0.7500    1.2990    0.0000 C   0  0  0  0  0  0  0  0  0  0  0  0
   -0.7500    1.2990    0.0000 C   0  0  0  0  0  0  0  0  0  0  0  0
   -1.5000    0.0000    0.0000 C   0  0  0  0  0  0  0  0  0  0  0  0
   -0.7500   -1.2990    0.0000 C   0  0  0  0  0  0  0  0  0  0  0  0
   -1.6852   -2.4718    0.0000 S   0  0  0  0  0  0  0  0  0  0  0  0
   -2.6205   -1.2990    0.0000 O   0  0  0  0  0  0  0  0  0  0  0  0
   -3.0367   -3.1226    0.0000 O   0  0  0  0  0  0  0  0  0  0  0  0
   -1.3515   -3.9342    0.0000 C   0  0  0  0  0  0  0  0  0  0  0  0
    0.0000   -4.5850    0.0000 C   0  0  0  0  0  0  0  0  0  0  0  0
   -0.1121   -6.0808    0.0000 C   0  0  0  0  0  0  0  0  0  0  0  0
    1.1273   -6.9258    0.0000 C   0  0  0  0  0  0  0  0  0  0  0  0
    2.4787   -6.2750    0.0000 C   0  0  0  0  0  0  0  0  0  0  0  0
    2.5908   -4.7792    0.0000 C   0  0  0  0  0  0  0  0  0  0  0  0
    1.3515   -3.9342    0.0000 C   0  0  0  0  0  0  0  0  0  0  0  0
    5.6303   -2.9038    0.0000 C   0  0  0  0  0  0  0  0  0  0  0  0
    6.6505   -4.0034    0.0000 C   0  0  0  0  0  0  0  0  0  0  0  0
  1  2  2  0
  2  3  1  0
  3  4  1  0
  2  5  1  0
  5  6  2  0
  6  7  1  0
  7  8  2  0
  8  9  1  0
  9 10  1  0
 10 11  1  0
 11 12  2  0
 12 13  1  0
 13 14  2  0
 14 15  1  0
 15 16  2  0
 16 17  1  0
 17 18  2  0
 17 19  2  0
 17 20  1  0
 20 21  1  0
 21 22  1  0
 22 23  1  0
 23 24  1  0
 24 25  1  0
 25 26  1  0
  8 27  1  0
 27 28  2  0
 28  5  1  0
 26 10  1  0
 16 11  1  0
 26 21  1  0
M  END
>  <molecule_chembl_id>  (61) 
CHEMBL4104247

>  <canonical_smiles>  (61) 
O=C(NO)c1ccc(CN2c3ccccc3S(=O)(=O)CC3CCCCC32)cc1

>  <pchembl_value_mean>  (61) 
4.62

>  <document_chembl_id>  (61) 
CHEMBL4033665

$$$$

     RDKit          2D

 41 44  0  0  0  0  0  0  0  0999 V2000
    5.4627   -4.5501    0.0000 C   0  0  0  0  0  0  0  0  0  0  0  0
    3.9955   -4.2382    0.0000 C   0  0  0  0  0  0  0  0  0  0  0  0
    3.5320   -2.8116    0.0000 C   0  0  0  0  0  0  0  0  0  0  0  0
    2.9918   -5.3529    0.0000 C   0  0  0  0  0  0  0  0  0  0  0  0
    1.5000   -5.1962    0.0000 C   0  0  0  0  0  0  0  0  0  0  0  0
    0.7500   -3.8971    0.0000 C   0  0  0  0  0  0  0  0  0  0  0  0
   -0.7500   -3.8971    0.0000 O   0  0  0  0  0  0  0  0  0  0  0  0
    1.5000   -2.5981    0.0000 N   0  0  0  0  0  0  0  0  0  0  0  0
    0.7500   -1.2990    0.0000 C   0  0  0  0  0  0  0  0  0  0  0  0
    1.5000    0.0000    0.0000 C   0  0  0  0  0  0  0  0  0  0  0  0
    0.7500    1.2990    0.0000 C   0  0  0  0  0  0  0  0  0  0  0  0
   -0.7500    1.2990    0.0000 C   0  0  0  0  0  0  0  0  0  0  0  0
   -1.5000    0.0000    0.0000 C   0  0  0  0  0  0  0  0  0  0  0  0
   -0.7500   -1.2990    0.0000 C   0  0  0  0  0  0  0  0  0  0  0  0
    0.8899   -6.5665    0.0000 C   0  0  0  0  0  0  0  0  0  0  0  0
   -0.5773   -6.8783    0.0000 C   0  0  0  0  0  0  0  0  0  0  0  0
   -1.5810   -5.7636    0.0000 C   0  0  0  0  0  0  0  0  0  0  0  0
   -3.0482   -6.0755    0.0000 C   0  0  0  0  0  0  0  0  0  0  0  0
   -3.5118   -7.5021    0.0000 C   0  0  0  0  0  0  0  0  0  0  0  0
   -2.5081   -8.6168    0.0000 C   0  0  0  0  0  0  0  0  0  0  0  0
   -1.0409   -8.3049    0.0000 C   0  0  0  0  0  0  0  0  0  0  0  0
    2.0046   -7.5702    0.0000 C   0  0  0  0  0  0  0  0  0  0  0  0
    1.8478   -9.0619    0.0000 C   0  0  0  0  0  0  0  0  0  0  0  0
    0.4775   -9.6721    0.0000 C   0  0  0  0  0  0  0  0  0  0  0  0
    0.3207  -11.1638    0.0000 C   0  0  0  0  0  0  0  0  0  0  0  0
    1.5342  -12.0455    0.0000 C   0  0  0  0  0  0  0  0  0  0  0  0
    1.3774  -13.5373    0.0000 F   0  0  0  0  0  0  0  0  0  0  0  0
    2.9046  -11.4354    0.0000 C   0  0  0  0  0  0  0  0  0  0  0  0
    3.0613   -9.9436    0.0000 C   0  0  0  0  0  0  0  0  0  0  0  0
    3.3037   -6.8202    0.0000 N   0  0  0  0  0  0  0  0  0  0  0  0
    4.6740   -7.4303    0.0000 C   0  0  0  0  0  0  0  0  0  0  0  0
    5.8875   -6.5486    0.0000 C   0  0  0  0  0  0  0  0  0  0  0  0
    7.2578   -7.1587    0.0000 C   0  0  0  0  0  0  0  0  0  0  0  0
    7.4146   -8.6505    0.0000 O   0  0  0  0  0  0  0  0  0  0  0  0
    8.4713   -6.2770    0.0000 C   0  0  0  0  0  0  0  0  0  0  0  0
    9.8417   -6.8871    0.0000 C   0  0  0  0  0  0  0  0  0  0  0  0
    9.9984   -8.3789    0.0000 O   0  0  0  0  0  0  0  0  0  0  0  0
   11.0552   -6.0054    0.0000 C   0  0  0  0  0  0  0  0  0  0  0  0
   12.4255   -6.6156    0.0000 C   0  0  0  0  0  0  0  0  0  0  0  0
   12.5823   -8.1073    0.0000 O   0  0  0  0  0  0  0  0  0  0  0  0
   13.6390   -5.7339    0.0000 O   0  0  0  0  0  0  0  0  0  0  0  0
  1  2  1  0
  2  3  1  0
  2  4  1  0
  4  5  2  0
  5  6  1  0
  6  7  2  0
  6  8  1  0
  8  9  1  0
  9 10  2  0
 10 11  1  0
 11 12  2  0
 12 13  1  0
 13 14  2  0
  5 15  1  0
 15 16  1  0
 16 17  2  0
 17 18  1  0
 18 19  2  0
 19 20  1  0
 20 21  2  0
 15 22  2  0
 22 23  1  0
 23 24  2  0
 24 25  1  0
 25 26  2  0
 26 27  1  0
 26 28  1  0
 28 29  2  0
 22 30  1  0
 30 31  1  0
 31 32  1  0
 32 33  1  0
 33 34  1  0
 33 35  1  0
 35 36  1  0
 36 37  1  0
 36 38  1  0
 38 39  1  0
 39 40  2  0
 39 41  1  0
 30  4  1  0
 14  9  1  0
 21 16  1  0
 29 23  1  0
M  END
>  <molecule_chembl_id>  (62) 
CHEMBL1487

>  <canonical_smiles>  (62) 
CC(C)c1c(C(=O)Nc2ccccc2)c(-c2ccccc2)c(-c2ccc(F)cc2)n1CCC(O)CC(O)CC(=O)O

>  <pchembl_value_mean>  (62) 
4.65

>  <document_chembl_id>  (62) 
CHEMBL2346500

$$$$

     RDKit          2D

 25 27  0  0  0  0  0  0  0  0999 V2000
    3.0000    0.0000    0.0000 N   0  0  0  0  0  0  0  0  0  0  0  0
    1.5000    0.0000    0.0000 C   0  0  0  0  0  0  0  0  0  0  0  0
    0.7500   -1.2990    0.0000 C   0  0  0  0  0  0  0  0  0  0  0  0
   -0.7500   -1.2990    0.0000 C   0  0  0  0  0  0  0  0  0  0  0  0
   -1.5000    0.0000    0.0000 C   0  0  0  0  0  0  0  0  0  0  0  0
   -3.0000    0.0000    0.0000 C   0  0  0  0  0  0  0  0  0  0  0  0
   -3.7500    1.2990    0.0000 C   0  0  0  0  0  0  0  0  0  0  0  0
   -5.2500    1.2990    0.0000 C   0  0  0  0  0  0  0  0  0  0  0  0
   -6.0000    0.0000    0.0000 C   0  0  0  0  0  0  0  0  0  0  0  0
   -5.2500   -1.2990    0.0000 C   0  0  0  0  0  0  0  0  0  0  0  0
   -6.0000   -2.5981    0.0000 N   0  0  0  0  0  4  0  0  0  0  0  0
   -5.2500   -3.8971    0.0000 O   0  0  0  0  0  0  0  0  0  0  0  0
   -7.5000   -2.5981    0.0000 O   0  0  0  0  0  1  0  0  0  0  0  0
   -3.7500   -1.2990    0.0000 C   0  0  0  0  0  0  0  0  0  0  0  0
   -0.7500    1.2990    0.0000 C   0  0  0  0  0  0  0  0  0  0  0  0
    0.7500    1.2990    0.0000 C   0  0  0  0  0  0  0  0  0  0  0  0
    1.5000    2.5981    0.0000 N   0  0  0  0  0  0  0  0  0  0  0  0
    0.7500    3.8971    0.0000 C   0  0  0  0  0  0  0  0  0  0  0  0
   -0.7500    3.8971    0.0000 O   0  0  0  0  0  0  0  0  0  0  0  0
    1.5000    5.1962    0.0000 C   0  0  0  0  0  0  0  0  0  0  0  0
    3.0000    5.1962    0.0000 C   0  0  0  0  0  0  0  0  0  0  0  0
    3.7500    6.4952    0.0000 C   0  0  0  0  0  0  0  0  0  0  0  0
    3.0000    7.7942    0.0000 C   0  0  0  0  0  0  0  0  0  0  0  0
    1.5000    7.7942    0.0000 C   0  0  0  0  0  0  0  0  0  0  0  0
    0.7500    6.4952    0.0000 C   0  0  0  0  0  0  0  0  0  0  0  0
  1  2  1  0
  2  3  2  0
  3  4  1  0
  4  5  2  0
  5  6  1  0
  6  7  2  0
  7  8  1  0
  8  9  2  0
  9 10  1  0
 10 11  1  0
 11 12  2  0
 11 13  1  0
 10 14  2  0
  5 15  1  0
 15 16  2  0
 16 17  1  0
 17 18  1  0
 18 19  2  0
 18 20  1  0
 20 21  2  0
 21 22  1  0
 22 23  2  0
 23 24  1  0
 24 25  2  0
 16  2  1  0
 25 20  1  0
 14  6  1  0
M  CHG  2  11   1  13  -1
M  END
>  <molecule_chembl_id>  (63) 
CHEMBL1097744

>  <canonical_smiles>  (63) 
Nc1ccc(-c2cccc([N+](=O)[O-])c2)cc1NC(=O)c1ccccc1

>  <pchembl_value_mean>  (63) 
4.68

>  <document_chembl_id>  (63) 
CHEMBL1158590

$$$$

     RDKit          2D

 22 24  0  0  0  0  0  0  0  0999 V2000
   -0.0000   -5.1073    0.0000 C   0  0  0  0  0  0  0  0  0  0  0  0
   -0.0000   -3.6073    0.0000 C   0  0  0  0  0  0  0  0  0  0  0  0
    1.2135   -2.7256    0.0000 N   0  0  0  0  0  0  0  0  0  0  0  0
    0.7500   -1.2990    0.0000 C   0  0  0  0  0  0  0  0  0  0  0  0
    1.5000    0.0000    0.0000 C   0  0  0  0  0  0  0  0  0  0  0  0
    0.7500    1.2990    0.0000 C   0  0  0  0  0  0  0  0  0  0  0  0
   -0.7500    1.2990    0.0000 C   0  0  0  0  0  0  0  0  0  0  0  0
   -1.5000    0.0000    0.0000 C   0  0  0  0  0  0  0  0  0  0  0  0
   -0.7500   -1.2990    0.0000 C   0  0  0  0  0  0  0  0  0  0  0  0
   -1.2135   -2.7256    0.0000 N   0  0  0  0  0  0  0  0  0  0  0  0
   -2.6401   -3.1891    0.0000 C   0  0  0  0  0  0  0  0  0  0  0  0
   -3.7548   -2.1855    0.0000 C   0  0  0  0  0  0  0  0  0  0  0  0
   -3.4430   -0.7182    0.0000 C   0  0  0  0  0  0  0  0  0  0  0  0
   -4.5577    0.2855    0.0000 C   0  0  0  0  0  0  0  0  0  0  0  0
   -5.9843   -0.1781    0.0000 C   0  0  0  0  0  0  0  0  0  0  0  0
   -7.0990    0.8256    0.0000 C   0  0  0  0  0  0  0  0  0  0  0  0
   -8.5256    0.3621    0.0000 O   0  0  0  0  0  0  0  0  0  0  0  0
   -6.7871    2.2929    0.0000 N   0  0  0  0  0  0  0  0  0  0  0  0
   -7.9018    3.2966    0.0000 O   0  0  0  0  0  0  0  0  0  0  0  0
   -6.2961   -1.6453    0.0000 C   0  0  0  0  0  0  0  0  0  0  0  0
   -5.1814   -2.6490    0.0000 C   0  0  0  0  0  0  0  0  0  0  0  0
   -5.4933   -4.1162    0.0000 F   0  0  0  0  0  0  0  0  0  0  0  0
  1  2  1  0
  2  3  2  0
  3  4  1  0
  4  5  2  0
  5  6  1  0
  6  7  2  0
  7  8  1  0
  8  9  2  0
  9 10  1  0
 10 11  1  0
 11 12  1  0
 12 13  2  0
 13 14  1  0
 14 15  2  0
 15 16  1  0
 16 17  2  0
 16 18  1  0
 18 19  1  0
 15 20  1  0
 20 21  2  0
 21 22  1  0
 10  2  1  0
 21 12  1  0
  9  4  1  0
M  END
>  <molecule_chembl_id>  (64) 
CHEMBL4080014

>  <canonical_smiles>  (64) 
Cc1nc2ccccc2n1Cc1ccc(C(=O)NO)cc1F

>  <pchembl_value_mean>  (64) 
4.69

>  <document_chembl_id>  (64) 
CHEMBL4033665

$$$$

     RDKit          2D

 21 22  0  0  0  0  0  0  0  0999 V2000
    3.7500    1.2990    0.0000 O   0  0  0  0  0  0  0  0  0  0  0  0
    3.0000    0.0000    0.0000 C   0  0  0  0  0  0  0  0  0  0  0  0
    3.7500   -1.2990    0.0000 N   0  0  0  0  0  0  0  0  0  0  0  0
    5.2500   -1.2990    0.0000 O   0  0  0  0  0  0  0  0  0  0  0  0
    1.5000    0.0000    0.0000 C   0  0  0  0  0  0  0  0  0  0  0  0
    0.7500   -1.2990    0.0000 C   0  0  0  0  0  0  0  0  0  0  0  0
   -0.7500   -1.2990    0.0000 C   0  0  0  0  0  0  0  0  0  0  0  0
   -1.5000    0.0000    0.0000 C   0  0  0  0  0  0  0  0  0  0  0  0
   -0.7500    1.2990    0.0000 C   0  0  0  0  0  0  0  0  0  0  0  0
   -1.5000    2.5981    0.0000 C   0  0  0  0  0  0  0  0  0  0  0  0
   -3.0000    2.5981    0.0000 O   0  0  0  0  0  0  0  0  0  0  0  0
   -0.7500    3.8971    0.0000 N   0  0  0  0  0  0  0  0  0  0  0  0
   -1.5000    5.1962    0.0000 C   0  0  0  0  0  0  0  0  0  0  0  0
   -0.7500    6.4952    0.0000 C   0  0  0  0  0  0  0  0  0  0  0  0
   -1.5000    7.7942    0.0000 C   0  0  0  0  0  0  0  0  0  0  0  0
   -0.7500    9.0933    0.0000 C   0  0  0  0  0  0  0  0  0  0  0  0
   -1.5000   10.3923    0.0000 C   0  0  0  0  0  0  0  0  0  0  0  0
   -3.0000   10.3923    0.0000 C   0  0  0  0  0  0  0  0  0  0  0  0
   -3.7500    9.0933    0.0000 N   0  0  0  0  0  0  0  0  0  0  0  0
   -3.0000    7.7942    0.0000 C   0  0  0  0  0  0  0  0  0  0  0  0
    0.7500    1.2990    0.0000 C   0  0  0  0  0  0  0  0  0  0  0  0
  1  2  2  0
  2  3  1  0
  3  4  1  0
  2  5  1  0
  5  6  2  0
  6  7  1  0
  7  8  2  0
  8  9  1  0
  9 10  1  0
 10 11  2  0
 10 12  1  0
 12 13  1  0
 13 14  1  0
 14 15  1  0
 15 16  2  0
 16 17  1  0
 17 18  2  0
 18 19  1  0
 19 20  2  0
  9 21  2  0
 21  5  1  0
 20 15  1  0
M  END
>  <molecule_chembl_id>  (65) 
CHEMBL2381518

>  <canonical_smiles>  (65) 
O=C(NO)c1cccc(C(=O)NCCc2cccnc2)c1

>  <pchembl_value_mean>  (65) 
4.7

>  <document_chembl_id>  (65) 
CHEMBL2380312

$$$$

     RDKit          2D

 21 21  0  0  0  0  0  0  0  0999 V2000
    6.0000    0.0000    0.0000 O   0  0  0  0  0  0  0  0  0  0  0  0
    5.2500   -1.2990    0.0000 C   0  0  0  0  0  0  0  0  0  0  0  0
    6.0000   -2.5981    0.0000 C   0  0  0  0  0  0  0  0  0  0  0  0
    7.5000   -2.5981    0.0000 C   0  0  0  0  0  0  0  0  0  0  0  0
    8.2500   -3.8971    0.0000 C   0  0  0  0  0  0  0  0  0  0  0  0
    9.7500   -3.8971    0.0000 C   0  0  0  0  0  0  0  0  0  0  0  0
   10.5000   -5.1962    0.0000 C   0  0  0  0  0  0  0  0  0  0  0  0
   12.0000   -5.1962    0.0000 C   0  0  0  0  0  0  0  0  0  0  0  0
   12.7500   -6.4952    0.0000 S   0  0  0  0  0  0  0  0  0  0  0  0
    3.7500   -1.2990    0.0000 N   0  0  0  0  0  0  0  0  0  0  0  0
    3.0000    0.0000    0.0000 C   0  0  0  0  0  0  0  0  0  0  0  0
    1.5000    0.0000    0.0000 C   0  0  0  0  0  0  0  0  0  0  0  0
    0.7500   -1.2990    0.0000 C   0  0  0  0  0  0  0  0  0  0  0  0
   -0.7500   -1.2990    0.0000 C   0  0  0  0  0  0  0  0  0  0  0  0
   -1.5000    0.0000    0.0000 C   0  0  0  0  0  0  0  0  0  0  0  0
   -3.0000    0.0000    0.0000 C   0  0  0  0  0  0  0  0  0  0  0  0
   -4.5000    0.0000    0.0000 F   0  0  0  0  0  0  0  0  0  0  0  0
   -3.0000    1.5000    0.0000 F   0  0  0  0  0  0  0  0  0  0  0  0
   -3.0000   -1.5000    0.0000 F   0  0  0  0  0  0  0  0  0  0  0  0
   -0.7500    1.2990    0.0000 C   0  0  0  0  0  0  0  0  0  0  0  0
    0.7500    1.2990    0.0000 C   0  0  0  0  0  0  0  0  0  0  0  0
  1  2  2  0
  2  3  1  0
  3  4  1  0
  4  5  1  0
  5  6  1  0
  6  7  1  0
  7  8  1  0
  8  9  1  0
  2 10  1  0
 10 11  1  0
 11 12  1  0
 12 13  2  0
 13 14  1  0
 14 15  2  0
 15 16  1  0
 16 17  1  0
 16 18  1  0
 16 19  1  0
 15 20  1  0
 20 21  2  0
 21 12  1  0
M  END
>  <molecule_chembl_id>  (66) 
CHEMBL3356932

>  <canonical_smiles>  (66) 
O=C(CCCCCCS)NCc1ccc(C(F)(F)F)cc1

>  <pchembl_value_mean>  (66) 
4.71

>  <document_chembl_id>  (66) 
CHEMBL3352570

$$$$

     RDKit          2D

 39 43  0  0  0  0  0  0  0  0999 V2000
   -5.9404  -19.0665    0.0000 O   0  0  0  0  0  0  0  0  0  0  0  0
   -4.4486  -19.2233    0.0000 C   0  0  0  0  0  0  0  0  0  0  0  0
   -3.5669  -18.0098    0.0000 C   0  0  0  0  0  0  0  0  0  0  0  0
   -4.1770  -16.6395    0.0000 C   0  0  0  0  0  0  0  0  0  0  0  0
   -3.2954  -15.4260    0.0000 C   0  0  0  0  0  0  0  0  0  0  0  0
   -3.9055  -14.0556    0.0000 C   0  0  0  0  0  0  0  0  0  0  0  0
   -3.0238  -12.8421    0.0000 C   0  0  0  0  0  0  0  0  0  0  0  0
   -3.6339  -11.4718    0.0000 N   0  0  0  0  0  0  0  0  0  0  0  0
   -2.8839  -10.1728    0.0000 C   0  0  0  0  0  0  0  0  0  0  0  0
   -3.8876   -9.0580    0.0000 C   0  0  0  0  0  0  0  0  0  0  0  0
   -3.5757   -7.5908    0.0000 C   0  0  0  0  0  0  0  0  0  0  0  0
   -2.1491   -7.1273    0.0000 C   0  0  0  0  0  0  0  0  0  0  0  0
   -1.8373   -5.6601    0.0000 C   0  0  0  0  0  0  0  0  0  0  0  0
   -2.9520   -4.6564    0.0000 C   0  0  0  0  0  0  0  0  0  0  0  0
   -2.6401   -3.1891    0.0000 C   0  0  0  0  0  0  0  0  0  0  0  0
   -3.7548   -2.1855    0.0000 O   0  0  0  0  0  0  0  0  0  0  0  0
   -1.2135   -2.7256    0.0000 C   0  0  0  0  0  0  0  0  0  0  0  0
   -0.7500   -1.2990    0.0000 C   0  0  0  0  0  0  0  0  0  0  0  0
   -1.6317   -0.0855    0.0000 C   0  0  0  0  0  0  0  0  0  0  0  0
   -1.0216    1.2848    0.0000 C   0  0  0  0  0  0  0  0  0  0  0  0
   -1.9033    2.4983    0.0000 C   0  0  0  0  0  0  0  0  0  0  0  0
   -3.3950    2.3415    0.0000 C   0  0  0  0  0  0  0  0  0  0  0  0
   -4.2767    3.5551    0.0000 O   0  0  0  0  0  0  0  0  0  0  0  0
   -4.0051    0.9712    0.0000 C   0  0  0  0  0  0  0  0  0  0  0  0
   -3.1235   -0.2423    0.0000 C   0  0  0  0  0  0  0  0  0  0  0  0
    0.7500   -1.2990    0.0000 S   0  0  0  0  0  0  0  0  0  0  0  0
    1.2135   -2.7256    0.0000 C   0  0  0  0  0  0  0  0  0  0  0  0
    2.5838   -3.3357    0.0000 C   0  0  0  0  0  0  0  0  0  0  0  0
    2.7406   -4.8275    0.0000 C   0  0  0  0  0  0  0  0  0  0  0  0
    4.1110   -5.4376    0.0000 O   0  0  0  0  0  0  0  0  0  0  0  0
    1.5271   -5.7092    0.0000 C   0  0  0  0  0  0  0  0  0  0  0  0
    0.1568   -5.0991    0.0000 C   0  0  0  0  0  0  0  0  0  0  0  0
   -0.0000   -3.6073    0.0000 C   0  0  0  0  0  0  0  0  0  0  0  0
   -4.3786   -5.1199    0.0000 C   0  0  0  0  0  0  0  0  0  0  0  0
   -4.6904   -6.5871    0.0000 C   0  0  0  0  0  0  0  0  0  0  0  0
   -5.2579   -9.6681    0.0000 N   0  0  0  0  0  0  0  0  0  0  0  0
   -5.1011  -11.1599    0.0000 N   0  0  0  0  0  0  0  0  0  0  0  0
   -3.8385  -20.5936    0.0000 N   0  0  0  0  0  0  0  0  0  0  0  0
   -4.7202  -21.8072    0.0000 O   0  0  0  0  0  0  0  0  0  0  0  0
  1  2  2  0
  2  3  1  0
  3  4  1  0
  4  5  1  0
  5  6  1  0
  6  7  1  0
  7  8  1  0
  8  9  1  0
  9 10  2  0
 10 11  1  0
 11 12  2  0
 12 13  1  0
 13 14  2  0
 14 15  1  0
 15 16  2  0
 15 17  1  0
 17 18  2  0
 18 19  1  0
 19 20  2  0
 20 21  1  0
 21 22  2  0
 22 23  1  0
 22 24  1  0
 24 25  2  0
 18 26  1  0
 26 27  1  0
 27 28  2  0
 28 29  1  0
 29 30  1  0
 29 31  2  0
 31 32  1  0
 32 33  2  0
 14 34  1  0
 34 35  2  0
 10 36  1  0
 36 37  2  0
  2 38  1  0
 38 39  1  0
 37  8  1  0
 35 11  1  0
 33 17  1  0
 25 19  1  0
 33 27  1  0
M  END
>  <molecule_chembl_id>  (67) 
CHEMBL4586891

>  <canonical_smiles>  (67) 
O=C(CCCCCn1cc(-c2ccc(C(=O)c3c(-c4ccc(O)cc4)sc4cc(O)ccc34)cc2)nn1)NO

>  <pchembl_value_mean>  (67) 
4.72

>  <document_chembl_id>  (67) 
CHEMBL4422610

$$$$

     RDKit          2D

 18 18  0  0  0  0  0  0  0  0999 V2000
   12.7500   -6.4952    0.0000 O   0  0  0  0  0  0  0  0  0  0  0  0
   12.0000   -5.1962    0.0000 C   0  0  0  0  0  0  0  0  0  0  0  0
   10.5000   -5.1962    0.0000 N   0  0  0  0  0  0  0  0  0  0  0  0
    9.7500   -6.4952    0.0000 O   0  0  0  0  0  0  0  0  0  0  0  0
    9.7500   -3.8971    0.0000 C   0  0  0  0  0  0  0  0  0  0  0  0
    8.2500   -3.8971    0.0000 C   0  0  0  0  0  0  0  0  0  0  0  0
    7.5000   -2.5981    0.0000 C   0  0  0  0  0  0  0  0  0  0  0  0
    6.0000   -2.5981    0.0000 C   0  0  0  0  0  0  0  0  0  0  0  0
    5.2500   -1.2990    0.0000 C   0  0  0  0  0  0  0  0  0  0  0  0
    3.7500   -1.2990    0.0000 C   0  0  0  0  0  0  0  0  0  0  0  0
    3.0000   -2.5981    0.0000 O   0  0  0  0  0  0  0  0  0  0  0  0
    3.0000    0.0000    0.0000 N   0  0  0  0  0  0  0  0  0  0  0  0
    1.5000    0.0000    0.0000 C   0  0  0  0  0  0  0  0  0  0  0  0
    0.7500   -1.2990    0.0000 C   0  0  0  0  0  0  0  0  0  0  0  0
   -0.7500   -1.2990    0.0000 C   0  0  0  0  0  0  0  0  0  0  0  0
   -1.5000    0.0000    0.0000 C   0  0  0  0  0  0  0  0  0  0  0  0
   -0.7500    1.2990    0.0000 C   0  0  0  0  0  0  0  0  0  0  0  0
    0.7500    1.2990    0.0000 C   0  0  0  0  0  0  0  0  0  0  0  0
  1  2  2  0
  2  3  1  0
  3  4  1  0
  3  5  1  0
  5  6  1  0
  6  7  1  0
  7  8  1  0
  8  9  1  0
  9 10  1  0
 10 11  2  0
 10 12  1  0
 12 13  1  0
 13 14  2  0
 14 15  1  0
 15 16  2  0
 16 17  1  0
 17 18  2  0
 18 13  1  0
M  END
>  <molecule_chembl_id>  (68) 
CHEMBL141082

>  <canonical_smiles>  (68) 
O=CN(O)CCCCCC(=O)Nc1ccccc1

>  <pchembl_value_mean>  (68) 
4.72

>  <document_chembl_id>  (68) 
CHEMBL1137945

$$$$

     RDKit          2D

 22 23  0  0  0  0  0  0  0  0999 V2000
    5.2500   -1.2990    0.0000 C   0  0  0  0  0  0  0  0  0  0  0  0
    3.7500   -1.2990    0.0000 C   0  0  0  0  0  0  0  0  0  0  0  0
    3.0000   -2.5981    0.0000 O   0  0  0  0  0  0  0  0  0  0  0  0
    3.0000    0.0000    0.0000 N   0  0  0  0  0  0  0  0  0  0  0  0
    1.5000    0.0000    0.0000 C   0  0  0  0  0  0  0  0  0  0  0  0
    0.7500   -1.2990    0.0000 C   0  0  0  0  0  0  0  0  0  0  0  0
   -0.7500   -1.2990    0.0000 C   0  0  0  0  0  0  0  0  0  0  0  0
   -1.5000    0.0000    0.0000 C   0  0  0  0  0  0  0  0  0  0  0  0
   -3.0000    0.0000    0.0000 C   0  0  0  0  0  0  0  0  0  0  0  0
   -3.7500   -1.2990    0.0000 O   0  0  0  0  0  0  0  0  0  0  0  0
   -3.7500    1.2990    0.0000 C   0  0  0  0  0  0  0  0  0  0  0  0
   -5.2500    1.2990    0.0000 S   0  0  0  0  0  0  0  0  0  0  0  0
   -6.0000    2.5981    0.0000 C   0  0  0  0  0  0  0  0  0  0  0  0
   -5.2500    3.8971    0.0000 N   0  0  0  0  0  0  0  0  0  0  0  0
   -6.0000    5.1962    0.0000 C   0  0  0  0  0  0  0  0  0  0  0  0
   -5.2500    6.4952    0.0000 C   0  0  0  0  0  0  0  0  0  0  0  0
   -7.5000    5.1962    0.0000 C   0  0  0  0  0  0  0  0  0  0  0  0
   -8.2500    3.8971    0.0000 C   0  0  0  0  0  0  0  0  0  0  0  0
   -9.7500    3.8971    0.0000 O   0  0  0  0  0  0  0  0  0  0  0  0
   -7.5000    2.5981    0.0000 N   0  0  0  0  0  0  0  0  0  0  0  0
   -0.7500    1.2990    0.0000 C   0  0  0  0  0  0  0  0  0  0  0  0
    0.7500    1.2990    0.0000 C   0  0  0  0  0  0  0  0  0  0  0  0
  1  2  1  0
  2  3  2  0
  2  4  1  0
  4  5  1  0
  5  6  2  0
  6  7  1  0
  7  8  2  0
  8  9  1  0
  9 10  2  0
  9 11  1  0
 11 12  1  0
 12 13  1  0
 13 14  2  0
 14 15  1  0
 15 16  1  0
 15 17  2  0
 17 18  1  0
 18 19  1  0
 18 20  2  0
  8 21  1  0
 21 22  2  0
 22  5  1  0
 20 13  1  0
M  END
>  <molecule_chembl_id>  (69) 
CHEMBL1800241

>  <canonical_smiles>  (69) 
CC(=O)Nc1ccc(C(=O)CSc2nc(C)cc(O)n2)cc1

>  <pchembl_value_mean>  (69) 
4.72

>  <document_chembl_id>  (69) 
CHEMBL1800036

$$$$

     RDKit          2D

 29 31  0  0  0  0  0  0  0  0999 V2000
    6.7500   -1.2990    0.0000 N   0  0  0  0  0  2  0  0  0  0  0  0
    5.2500   -1.2990    0.0000 N   0  0  0  0  0  4  0  0  0  0  0  0
    3.7500   -1.2990    0.0000 N   0  0  0  0  0  0  0  0  0  0  0  0
    3.0000    0.0000    0.0000 C   0  0  0  0  0  0  0  0  0  0  0  0
    1.5000    0.0000    0.0000 C   0  0  0  0  0  0  0  0  0  0  0  0
    0.7500   -1.2990    0.0000 C   0  0  0  0  0  0  0  0  0  0  0  0
   -0.7500   -1.2990    0.0000 C   0  0  0  0  0  0  0  0  0  0  0  0
   -1.5000   -2.5981    0.0000 N   0  0  0  0  0  0  0  0  0  0  0  0
   -3.0000   -2.5981    0.0000 N   0  0  0  0  0  4  0  0  0  0  0  0
   -4.5000   -2.5981    0.0000 N   0  0  0  0  0  2  0  0  0  0  0  0
   -1.5000    0.0000    0.0000 C   0  0  0  0  0  0  0  0  0  0  0  0
   -0.7500    1.2990    0.0000 C   0  0  0  0  0  0  0  0  0  0  0  0
   -1.5000    2.5981    0.0000 C   0  0  0  0  0  0  0  0  0  0  0  0
   -3.0000    2.5981    0.0000 O   0  0  0  0  0  0  0  0  0  0  0  0
   -0.7500    3.8971    0.0000 N   0  0  0  0  0  0  0  0  0  0  0  0
   -1.5000    5.1962    0.0000 C   0  0  0  0  0  0  0  0  0  0  0  0
   -0.7500    6.4952    0.0000 C   0  0  0  0  0  0  0  0  0  0  0  0
   -1.5000    7.7942    0.0000 C   0  0  0  0  0  0  0  0  0  0  0  0
   -0.7500    9.0933    0.0000 C   0  0  0  0  0  0  0  0  0  0  0  0
    0.7500    9.0933    0.0000 C   0  0  0  0  0  0  0  0  0  0  0  0
    1.5000   10.3923    0.0000 C   0  0  0  0  0  0  0  0  0  0  0  0
    0.7500   11.6913    0.0000 C   0  0  0  0  0  0  0  0  0  0  0  0
   -0.7500   11.6913    0.0000 C   0  0  0  0  0  0  0  0  0  0  0  0
   -1.5000   10.3923    0.0000 C   0  0  0  0  0  0  0  0  0  0  0  0
   -3.0000    7.7942    0.0000 C   0  0  0  0  0  0  0  0  0  0  0  0
   -3.7500    6.4952    0.0000 C   0  0  0  0  0  0  0  0  0  0  0  0
   -3.0000    5.1962    0.0000 C   0  0  0  0  0  0  0  0  0  0  0  0
   -3.7500    3.8971    0.0000 N   0  0  0  0  0  0  0  0  0  0  0  0
    0.7500    1.2990    0.0000 C   0  0  0  0  0  0  0  0  0  0  0  0
  1  2  2  0
  2  3  2  0
  3  4  1  0
  4  5  1  0
  5  6  2  0
  6  7  1  0
  7  8  1  0
  8  9  2  0
  9 10  2  0
  7 11  2  0
 11 12  1  0
 12 13  1  0
 13 14  2  0
 13 15  1  0
 15 16  1  0
 16 17  2  0
 17 18  1  0
 18 19  1  0
 19 20  2  0
 20 21  1  0
 21 22  2  0
 22 23  1  0
 23 24  2  0
 18 25  2  0
 25 26  1  0
 26 27  2  0
 27 28  1  0
 12 29  2  0
 29  5  1  0
 27 16  1  0
 24 19  1  0
M  CHG  4   1  -1   2   1   9   1  10  -1
M  END
>  <molecule_chembl_id>  (70) 
CHEMBL2057826

>  <canonical_smiles>  (70) 
[N-]=[N+]=NCc1cc(N=[N+]=[N-])cc(C(=O)Nc2cc(-c3ccccc3)ccc2N)c1

>  <pchembl_value_mean>  (70) 
4.726666

>  <document_chembl_id>  (70) 
CHEMBL2057127

$$$$

     RDKit          2D

 25 27  0  0  0  0  0  0  0  0999 V2000
    3.7500   -1.2990    0.0000 C   0  0  0  0  0  0  0  0  0  0  0  0
    3.0000    0.0000    0.0000 C   0  0  0  0  0  0  0  0  0  0  0  0
    3.7500    1.2990    0.0000 O   0  0  0  0  0  0  0  0  0  0  0  0
    1.5000    0.0000    0.0000 C   0  0  0  0  0  0  0  0  0  0  0  0
    0.7500   -1.2990    0.0000 C   0  0  0  0  0  0  0  0  0  0  0  0
   -0.7500   -1.2990    0.0000 C   0  0  0  0  0  0  0  0  0  0  0  0
   -1.5000    0.0000    0.0000 C   0  0  0  0  0  0  0  0  0  0  0  0
   -0.7500    1.2990    0.0000 C   0  0  0  0  0  0  0  0  0  0  0  0
   -1.5000    2.5981    0.0000 C   0  0  0  0  0  0  0  0  0  0  0  0
   -0.7500    3.8971    0.0000 C   0  0  0  0  0  0  0  0  0  0  0  0
   -1.5000    5.1962    0.0000 C   0  0  0  0  0  0  0  0  0  0  0  0
   -3.0000    5.1962    0.0000 C   0  0  0  0  0  0  0  0  0  0  0  0
   -3.7500    6.4952    0.0000 N   0  0  0  0  0  0  0  0  0  0  0  0
   -3.7500    3.8971    0.0000 C   0  0  0  0  0  0  0  0  0  0  0  0
   -5.2500    3.8971    0.0000 N   0  0  0  0  0  0  0  0  0  0  0  0
   -6.0000    2.5981    0.0000 C   0  0  0  0  0  0  0  0  0  0  0  0
   -5.2500    1.2990    0.0000 O   0  0  0  0  0  0  0  0  0  0  0  0
   -7.5000    2.5981    0.0000 C   0  0  0  0  0  0  0  0  0  0  0  0
   -8.2500    3.8971    0.0000 C   0  0  0  0  0  0  0  0  0  0  0  0
   -9.7500    3.8971    0.0000 C   0  0  0  0  0  0  0  0  0  0  0  0
  -10.5000    2.5981    0.0000 C   0  0  0  0  0  0  0  0  0  0  0  0
   -9.7500    1.2990    0.0000 C   0  0  0  0  0  0  0  0  0  0  0  0
   -8.2500    1.2990    0.0000 C   0  0  0  0  0  0  0  0  0  0  0  0
   -3.0000    2.5981    0.0000 C   0  0  0  0  0  0  0  0  0  0  0  0
    0.7500    1.2990    0.0000 C   0  0  0  0  0  0  0  0  0  0  0  0
  1  2  1  0
  2  3  2  0
  2  4  1  0
  4  5  2  0
  5  6  1  0
  6  7  2  0
  7  8  1  0
  8  9  1  0
  9 10  2  0
 10 11  1  0
 11 12  2  0
 12 13  1  0
 12 14  1  0
 14 15  1  0
 15 16  1  0
 16 17  2  0
 16 18  1  0
 18 19  2  0
 19 20  1  0
 20 21  2  0
 21 22  1  0
 22 23  2  0
 14 24  2  0
  8 25  2  0
 25  4  1  0
 24  9  1  0
 23 18  1  0
M  END
>  <molecule_chembl_id>  (71) 
CHEMBL1097746

>  <canonical_smiles>  (71) 
CC(=O)c1cccc(-c2ccc(N)c(NC(=O)c3ccccc3)c2)c1

>  <pchembl_value_mean>  (71) 
4.73

>  <document_chembl_id>  (71) 
CHEMBL1158590

$$$$

     RDKit          2D

 31 34  0  0  0  0  0  0  0  0999 V2000
   -3.7500   -6.4952    0.0000 C   0  0  0  0  0  0  0  0  0  0  0  0
   -3.0000   -5.1962    0.0000 C   0  0  0  0  0  0  0  0  0  0  0  0
   -1.5000   -5.1962    0.0000 C   0  0  0  0  0  0  0  0  0  0  0  0
   -0.7500   -6.4952    0.0000 N   0  0  0  0  0  0  0  0  0  0  0  0
   -1.5000   -7.7942    0.0000 C   0  0  0  0  0  0  0  0  0  0  0  0
   -3.0000   -7.7942    0.0000 N   0  0  0  0  0  0  0  0  0  0  0  0
   -3.7500   -9.0933    0.0000 C   0  0  0  0  0  0  0  0  0  0  0  0
   -3.0000  -10.3923    0.0000 N   0  0  0  0  0  0  0  0  0  0  0  0
   -1.5000  -10.3923    0.0000 C   0  0  0  0  0  0  0  0  0  0  0  0
   -0.4963  -11.5070    0.0000 N   0  0  0  0  0  0  0  0  0  0  0  0
    0.8740  -10.8969    0.0000 C   0  0  0  0  0  0  0  0  0  0  0  0
    0.7172   -9.4051    0.0000 N   0  0  0  0  0  0  0  0  0  0  0  0
   -0.7500   -9.0933    0.0000 C   0  0  0  0  0  0  0  0  0  0  0  0
   -0.7500   -3.8971    0.0000 C   0  0  0  0  0  0  0  0  0  0  0  0
    0.7500   -3.8971    0.0000 N   0  0  0  0  0  0  0  0  0  0  0  0
    1.5000   -2.5981    0.0000 C   0  0  0  0  0  0  0  0  0  0  0  0
    3.0000   -2.5981    0.0000 C   0  0  0  0  0  0  0  0  0  0  0  0
    3.7500   -3.8971    0.0000 C   0  0  0  0  0  0  0  0  0  0  0  0
    5.2500   -3.8971    0.0000 C   0  0  0  0  0  0  0  0  0  0  0  0
    6.0000   -5.1962    0.0000 C   0  0  0  0  0  0  0  0  0  0  0  0
    7.5000   -5.1962    0.0000 C   0  0  0  0  0  0  0  0  0  0  0  0
    8.2500   -3.8971    0.0000 O   0  0  0  0  0  0  0  0  0  0  0  0
    8.2500   -6.4952    0.0000 N   0  0  0  0  0  0  0  0  0  0  0  0
    9.7500   -6.4952    0.0000 O   0  0  0  0  0  0  0  0  0  0  0  0
    0.7500   -1.2990    0.0000 C   0  0  0  0  0  0  0  0  0  0  0  0
    1.5000    0.0000    0.0000 C   0  0  0  0  0  0  0  0  0  0  0  0
    0.7500    1.2990    0.0000 C   0  0  0  0  0  0  0  0  0  0  0  0
   -0.7500    1.2990    0.0000 C   0  0  0  0  0  0  0  0  0  0  0  0
   -1.5000    0.0000    0.0000 C   0  0  0  0  0  0  0  0  0  0  0  0
   -0.7500   -1.2990    0.0000 C   0  0  0  0  0  0  0  0  0  0  0  0
   -1.5000   -2.5981    0.0000 N   0  0  0  0  0  0  0  0  0  0  0  0
  1  2  1  0
  2  3  1  0
  3  4  1  0
  4  5  1  0
  5  6  2  0
  6  7  1  0
  7  8  2  0
  8  9  1  0
  9 10  1  0
 10 11  1  0
 11 12  2  0
 12 13  1  0
  3 14  1  0
 14 15  2  0
 15 16  1  0
 16 17  1  0
 17 18  1  0
 18 19  1  0
 19 20  1  0
 20 21  1  0
 21 22  2  0
 21 23  1  0
 23 24  1  0
 16 25  2  0
 25 26  1  0
 26 27  2  0
 27 28  1  0
 28 29  2  0
 29 30  1  0
 30 31  2  0
 13  5  1  0
 31 14  1  0
 13  9  2  0
 30 25  1  0
M  END
>  <molecule_chembl_id>  (72) 
CHEMBL4571886

>  <canonical_smiles>  (72) 
CCC(Nc1ncnc2[nH]cnc12)c1nc(CCCCC(=O)NO)c2ccccc2n1

>  <pchembl_value_mean>  (72) 
4.74

>  <document_chembl_id>  (72) 
CHEMBL4402587

$$$$

     RDKit          2D

 30 29  0  0  0  0  0  0  0  0999 V2000
    0.0000    0.0000    0.0000 C   0  0  0  0  0  0  0  0  0  0  0  0
    1.2990    0.7500    0.0000 C   0  0  0  0  0  0  0  0  0  0  0  0
    2.5981    1.5000    0.0000 C   0  0  0  0  0  0  0  0  0  0  0  0
    2.0490   -0.5490    0.0000 C   0  0  0  0  0  0  0  0  0  0  0  0
    0.5490    2.0490    0.0000 N   0  0  0  0  0  0  0  0  0  0  0  0
    1.2990    3.3481    0.0000 C   0  0  0  0  0  0  0  0  0  0  0  0
    2.7990    3.3481    0.0000 O   0  0  0  0  0  0  0  0  0  0  0  0
    0.5490    4.6471    0.0000 C   0  0  0  0  0  0  0  0  0  0  0  0
    1.2990    5.9462    0.0000 C   0  0  0  0  0  0  0  0  0  0  0  0
    2.7990    5.9462    0.0000 O   0  0  0  0  0  0  0  0  0  0  0  0
    0.5490    7.2452    0.0000 C   0  0  0  0  0  0  0  0  0  0  0  0
    1.2990    8.5442    0.0000 C   0  0  0  0  0  0  0  0  0  0  0  0
    0.5490    9.8433    0.0000 C   0  0  0  0  0  0  0  0  0  0  0  0
    1.2990   11.1423    0.0000 C   0  0  0  0  0  0  0  0  0  0  0  0
    0.5490   12.4413    0.0000 S   0  0  0  0  0  0  0  0  0  0  0  0
    1.2990   13.7404    0.0000 S   0  0  0  0  0  0  0  0  0  0  0  0
    0.5490   15.0394    0.0000 C   0  0  0  0  0  0  0  0  0  0  0  0
    1.2990   16.3385    0.0000 C   0  0  0  0  0  0  0  0  0  0  0  0
    0.5490   17.6375    0.0000 C   0  0  0  0  0  0  0  0  0  0  0  0
    1.2990   18.9365    0.0000 C   0  0  0  0  0  0  0  0  0  0  0  0
    0.5490   20.2356    0.0000 C   0  0  0  0  0  0  0  0  0  0  0  0
   -0.9510   20.2356    0.0000 O   0  0  0  0  0  0  0  0  0  0  0  0
    1.2990   21.5346    0.0000 C   0  0  0  0  0  0  0  0  0  0  0  0
    0.5490   22.8336    0.0000 C   0  0  0  0  0  0  0  0  0  0  0  0
   -0.9510   22.8336    0.0000 O   0  0  0  0  0  0  0  0  0  0  0  0
    1.2990   24.1327    0.0000 N   0  0  0  0  0  0  0  0  0  0  0  0
    0.5490   25.4317    0.0000 C   0  0  0  0  0  0  0  0  0  0  0  0
    1.8481   26.1817    0.0000 C   0  0  0  0  0  0  0  0  0  0  0  0
   -0.7500   24.6817    0.0000 C   0  0  0  0  0  0  0  0  0  0  0  0
   -0.2010   26.7308    0.0000 C   0  0  0  0  0  0  0  0  0  0  0  0
  1  2  1  0
  2  3  1  0
  2  4  1  0
  2  5  1  0
  5  6  1  0
  6  7  2  0
  6  8  1  0
  8  9  1  0
  9 10  1  0
  9 11  1  0
 11 12  2  3
 12 13  1  0
 13 14  1  0
 14 15  1  0
 15 16  1  0
 16 17  1  0
 17 18  1  0
 18 19  1  0
 19 20  2  3
 20 21  1  0
 21 22  1  0
 21 23  1  0
 23 24  1  0
 24 25  2  0
 24 26  1  0
 26 27  1  0
 27 28  1  0
 27 29  1  0
 27 30  1  0
M  END
>  <molecule_chembl_id>  (73) 
CHEMBL5085306

>  <canonical_smiles>  (73) 
CC(C)(C)NC(=O)CC(O)C=CCCSSCCC=CC(O)CC(=O)NC(C)(C)C

>  <pchembl_value_mean>  (73) 
4.75

>  <document_chembl_id>  (73) 
CHEMBL5046273

$$$$

     RDKit          2D

 38 42  0  0  0  0  0  0  0  0999 V2000
   -1.5342  -12.0455    0.0000 O   0  0  0  0  0  0  0  0  0  0  0  0
   -0.3207  -11.1638    0.0000 C   0  0  0  0  0  0  0  0  0  0  0  0
   -0.4775   -9.6721    0.0000 N   0  0  0  0  0  0  0  0  0  0  0  0
   -1.8478   -9.0619    0.0000 C   0  0  0  0  0  0  0  0  0  0  0  0
   -3.0613   -9.9436    0.0000 C   0  0  0  0  0  0  0  0  0  0  0  0
   -2.9046  -11.4354    0.0000 C   0  0  0  0  0  0  0  0  0  0  0  0
   -4.1181  -12.3171    0.0000 C   0  0  0  0  0  0  0  0  0  0  0  0
   -3.9613  -13.8089    0.0000 C   0  0  0  0  0  0  0  0  0  0  0  0
   -5.1748  -14.6905    0.0000 N   0  0  0  0  0  0  0  0  0  0  0  0
   -5.0180  -16.1823    0.0000 C   0  0  0  0  0  0  0  0  0  0  0  0
   -3.6477  -16.7924    0.0000 O   0  0  0  0  0  0  0  0  0  0  0  0
   -6.2315  -17.0640    0.0000 C   0  0  0  0  0  0  0  0  0  0  0  0
   -7.6019  -16.4539    0.0000 C   0  0  0  0  0  0  0  0  0  0  0  0
   -8.8154  -17.3356    0.0000 C   0  0  0  0  0  0  0  0  0  0  0  0
   -8.6586  -18.8274    0.0000 C   0  0  0  0  0  0  0  0  0  0  0  0
   -7.2883  -19.4375    0.0000 C   0  0  0  0  0  0  0  0  0  0  0  0
   -6.0748  -18.5558    0.0000 C   0  0  0  0  0  0  0  0  0  0  0  0
   -4.7044  -19.1659    0.0000 S   0  0  0  0  0  0  0  0  0  0  0  0
   -2.0046   -7.5702    0.0000 C   0  0  0  0  0  0  0  0  0  0  0  0
   -3.3037   -6.8202    0.0000 N   0  0  0  0  0  0  0  0  0  0  0  0
   -2.9918   -5.3529    0.0000 C   0  0  0  0  0  0  0  0  0  0  0  0
   -1.5000   -5.1962    0.0000 C   0  0  0  0  0  0  0  0  0  0  0  0
   -0.7500   -3.8971    0.0000 C   0  0  0  0  0  0  0  0  0  0  0  0
    0.7500   -3.8971    0.0000 C   0  0  0  0  0  0  0  0  0  0  0  0
    1.5000   -2.5981    0.0000 C   0  0  0  0  0  0  0  0  0  0  0  0
    0.7500   -1.2990    0.0000 C   0  0  0  0  0  0  0  0  0  0  0  0
    1.5000    0.0000    0.0000 C   0  0  0  0  0  0  0  0  0  0  0  0
    0.7500    1.2990    0.0000 C   0  0  0  0  0  0  0  0  0  0  0  0
   -0.7500    1.2990    0.0000 C   0  0  0  0  0  0  0  0  0  0  0  0
   -1.5000    0.0000    0.0000 C   0  0  0  0  0  0  0  0  0  0  0  0
   -0.7500   -1.2990    0.0000 C   0  0  0  0  0  0  0  0  0  0  0  0
   -1.5000   -2.5981    0.0000 C   0  0  0  0  0  0  0  0  0  0  0  0
   -0.8899   -6.5665    0.0000 N   0  0  0  0  0  0  0  0  0  0  0  0
    1.0496  -11.7739    0.0000 C   0  0  0  0  0  0  0  0  0  0  0  0
    2.3486  -11.0239    0.0000 C   0  0  0  0  0  0  0  0  0  0  0  0
    3.4634  -12.0276    0.0000 N   0  0  0  0  0  0  0  0  0  0  0  0
    2.8533  -13.3980    0.0000 C   0  0  0  0  0  0  0  0  0  0  0  0
    1.3615  -13.2412    0.0000 S   0  0  0  0  0  0  0  0  0  0  0  0
  1  2  2  0
  2  3  1  0
  3  4  1  0
  4  5  1  0
  5  6  1  0
  6  7  1  0
  7  8  1  0
  8  9  1  0
  9 10  1  0
 10 11  2  0
 10 12  1  0
 12 13  2  0
 13 14  1  0
 14 15  2  0
 15 16  1  0
 16 17  2  0
 17 18  1  0
  4 19  1  0
 19 20  2  0
 20 21  1  0
 21 22  2  0
 22 23  1  0
 23 24  2  0
 24 25  1  0
 25 26  2  0
 26 27  1  0
 27 28  2  0
 28 29  1  0
 29 30  2  0
 30 31  1  0
 31 32  2  0
 22 33  1  0
  2 34  1  0
 34 35  2  0
 35 36  1  0
 36 37  2  0
 37 38  1  0
 17 12  1  0
 33 19  1  0
 38 34  1  0
 32 23  1  0
 31 26  1  0
M  END
>  <molecule_chembl_id>  (74) 
CHEMBL4745834

>  <canonical_smiles>  (74) 
O=C(NC(CCCCNC(=O)c1ccccc1S)c1ncc(-c2ccc3ccccc3c2)[nH]1)c1cncs1

>  <pchembl_value_mean>  (74) 
4.75

>  <document_chembl_id>  (74) 
CHEMBL4725494

$$$$

     RDKit          2D

 23 23  0  0  0  0  0  0  0  0999 V2000
   12.7500   -6.4952    0.0000 C   0  0  0  0  0  0  0  0  0  0  0  0
   12.0000   -5.1962    0.0000 C   0  0  0  0  0  0  0  0  0  0  0  0
   10.5000   -5.1962    0.0000 C   0  0  0  0  0  0  0  0  0  0  0  0
    9.7500   -3.8971    0.0000 C   0  0  0  0  0  0  0  0  0  0  0  0
    8.2500   -3.8971    0.0000 C   0  0  0  0  0  0  0  0  0  0  0  0
    7.5000   -2.5981    0.0000 C   0  0  0  0  0  0  0  0  0  0  0  0
    6.0000   -2.5981    0.0000 C   0  0  0  0  0  0  0  0  0  0  0  0
    5.2500   -1.2990    0.0000 C   0  0  0  0  0  0  0  0  0  0  0  0
    3.7500   -1.2990    0.0000 C   0  0  0  0  0  0  0  0  0  0  0  0
    3.0000   -2.5981    0.0000 O   0  0  0  0  0  0  0  0  0  0  0  0
    3.0000    0.0000    0.0000 N   0  0  0  0  0  0  0  0  0  0  0  0
    1.5000    0.0000    0.0000 C   0  0  0  0  0  0  0  0  0  0  0  0
    0.7500   -1.2990    0.0000 C   0  0  0  0  0  0  0  0  0  0  0  0
   -0.7500   -1.2990    0.0000 C   0  0  0  0  0  0  0  0  0  0  0  0
   -1.5000    0.0000    0.0000 C   0  0  0  0  0  0  0  0  0  0  0  0
   -0.7500    1.2990    0.0000 C   0  0  0  0  0  0  0  0  0  0  0  0
    0.7500    1.2990    0.0000 C   0  0  0  0  0  0  0  0  0  0  0  0
    7.5000   -5.1962    0.0000 C   0  0  0  0  0  0  0  0  0  0  0  0
    8.2500   -6.4952    0.0000 C   0  0  0  0  0  0  0  0  0  0  0  0
    7.5000   -7.7942    0.0000 C   0  0  0  0  0  0  0  0  0  0  0  0
    6.0000   -7.7942    0.0000 O   0  0  0  0  0  0  0  0  0  0  0  0
    8.2500   -9.0933    0.0000 N   0  0  0  0  0  0  0  0  0  0  0  0
    7.5000  -10.3923    0.0000 O   0  0  0  0  0  0  0  0  0  0  0  0
  1  2  1  0
  2  3  1  0
  3  4  1  0
  4  5  1  0
  5  6  1  0
  6  7  1  0
  7  8  1  0
  8  9  1  0
  9 10  2  0
  9 11  1  0
 11 12  1  0
 12 13  2  0
 13 14  1  0
 14 15  2  0
 15 16  1  0
 16 17  2  0
  5 18  1  0
 18 19  1  0
 19 20  1  0
 20 21  2  0
 20 22  1  0
 22 23  1  0
 17 12  1  0
M  END
>  <molecule_chembl_id>  (75) 
CHEMBL4285869

>  <canonical_smiles>  (75) 
CCCCC(CCCC(=O)Nc1ccccc1)CCC(=O)NO

>  <pchembl_value_mean>  (75) 
4.75

>  <document_chembl_id>  (75) 
CHEMBL4251567

$$$$

     RDKit          2D

 24 26  0  0  0  0  0  0  0  0999 V2000
    3.7500    1.2990    0.0000 O   0  0  0  0  0  0  0  0  0  0  0  0
    3.0000    0.0000    0.0000 C   0  0  0  0  0  0  0  0  0  0  0  0
    3.7500   -1.2990    0.0000 N   0  0  0  0  0  0  0  0  0  0  0  0
    5.2500   -1.2990    0.0000 O   0  0  0  0  0  0  0  0  0  0  0  0
    1.5000    0.0000    0.0000 C   0  0  0  0  0  0  0  0  0  0  0  0
    0.7500   -1.2990    0.0000 C   0  0  0  0  0  0  0  0  0  0  0  0
   -0.7500   -1.2990    0.0000 C   0  0  0  0  0  0  0  0  0  0  0  0
   -1.5000   -2.5981    0.0000 F   0  0  0  0  0  0  0  0  0  0  0  0
   -1.5000    0.0000    0.0000 C   0  0  0  0  0  0  0  0  0  0  0  0
   -3.0000    0.0000    0.0000 C   0  0  0  0  0  0  0  0  0  0  0  0
   -3.7500    1.2990    0.0000 N   0  0  0  0  0  0  0  0  0  0  0  0
   -5.2418    1.4558    0.0000 N   0  0  0  0  0  0  0  0  0  0  0  0
   -5.5537    2.9231    0.0000 N   0  0  0  0  0  0  0  0  0  0  0  0
   -4.2546    3.6731    0.0000 C   0  0  0  0  0  0  0  0  0  0  0  0
   -4.0978    5.1648    0.0000 C   0  0  0  0  0  0  0  0  0  0  0  0
   -2.7275    5.7749    0.0000 N   0  0  0  0  0  0  0  0  0  0  0  0
   -2.5707    7.2667    0.0000 C   0  0  0  0  0  0  0  0  0  0  0  0
   -3.7842    8.1484    0.0000 C   0  0  0  0  0  0  0  0  0  0  0  0
   -5.1546    7.5383    0.0000 C   0  0  0  0  0  0  0  0  0  0  0  0
   -5.3113    6.0465    0.0000 N   0  0  0  0  0  0  0  0  0  0  0  0
   -3.1399    2.6694    0.0000 N   0  0  0  0  0  0  0  0  0  0  0  0
   -0.7500    1.2990    0.0000 C   0  0  0  0  0  0  0  0  0  0  0  0
   -1.5000    2.5981    0.0000 F   0  0  0  0  0  0  0  0  0  0  0  0
    0.7500    1.2990    0.0000 C   0  0  0  0  0  0  0  0  0  0  0  0
  1  2  2  0
  2  3  1  0
  3  4  1  0
  2  5  1  0
  5  6  2  0
  6  7  1  0
  7  8  1  0
  7  9  2  0
  9 10  1  0
 10 11  1  0
 11 12  1  0
 12 13  2  0
 13 14  1  0
 14 15  1  0
 15 16  2  0
 16 17  1  0
 17 18  2  0
 18 19  1  0
 19 20  2  0
 14 21  2  0
  9 22  1  0
 22 23  1  0
 22 24  2  0
 24  5  1  0
 21 11  1  0
 20 15  1  0
M  END
>  <molecule_chembl_id>  (76) 
CHEMBL4470373

>  <canonical_smiles>  (76) 
O=C(NO)c1cc(F)c(Cn2nnc(-c3ncccn3)n2)c(F)c1

>  <pchembl_value_mean>  (76) 
4.76

>  <document_chembl_id>  (76) 
CHEMBL4825781

$$$$

     RDKit          2D

 19 20  0  0  0  0  0  0  0  0999 V2000
    3.7500    1.2990    0.0000 O   0  0  0  0  0  0  0  0  0  0  0  0
    3.0000    0.0000    0.0000 C   0  0  0  0  0  0  0  0  0  0  0  0
    3.7500   -1.2990    0.0000 N   0  0  0  0  0  0  0  0  0  0  0  0
    5.2500   -1.2990    0.0000 O   0  0  0  0  0  0  0  0  0  0  0  0
    1.5000    0.0000    0.0000 C   0  0  0  0  0  0  0  0  0  0  0  0
    0.7500   -1.2990    0.0000 C   0  0  0  0  0  0  0  0  0  0  0  0
   -0.7500   -1.2990    0.0000 N   0  0  0  0  0  0  0  0  0  0  0  0
   -1.5000    0.0000    0.0000 C   0  0  0  0  0  0  0  0  0  0  0  0
   -3.0000    0.0000    0.0000 N   0  0  0  0  0  0  0  0  0  0  0  0
   -3.7500    1.2990    0.0000 C   0  0  0  0  0  0  0  0  0  0  0  0
   -3.0000    2.5981    0.0000 C   0  0  0  0  0  0  0  0  0  0  0  0
   -1.5000    2.5981    0.0000 Cl  0  0  0  0  0  0  0  0  0  0  0  0
   -3.7500    3.8971    0.0000 C   0  0  0  0  0  0  0  0  0  0  0  0
   -5.2500    3.8971    0.0000 C   0  0  0  0  0  0  0  0  0  0  0  0
   -6.0000    2.5981    0.0000 C   0  0  0  0  0  0  0  0  0  0  0  0
   -5.2500    1.2990    0.0000 C   0  0  0  0  0  0  0  0  0  0  0  0
   -6.0000    0.0000    0.0000 Cl  0  0  0  0  0  0  0  0  0  0  0  0
   -0.7500    1.2990    0.0000 N   0  0  0  0  0  0  0  0  0  0  0  0
    0.7500    1.2990    0.0000 C   0  0  0  0  0  0  0  0  0  0  0  0
  1  2  2  0
  2  3  1  0
  3  4  1  0
  2  5  1  0
  5  6  2  0
  6  7  1  0
  7  8  2  0
  8  9  1  0
  9 10  1  0
 10 11  2  0
 11 12  1  0
 11 13  1  0
 13 14  2  0
 14 15  1  0
 15 16  2  0
 16 17  1  0
  8 18  1  0
 18 19  2  0
 19  5  1  0
 16 10  1  0
M  END
>  <molecule_chembl_id>  (77) 
CHEMBL3652240

>  <canonical_smiles>  (77) 
O=C(NO)c1cnc(Nc2c(Cl)cccc2Cl)nc1

>  <pchembl_value_mean>  (77) 
4.76

>  <document_chembl_id>  (77) 
CHEMBL3639071

$$$$

     RDKit          2D

 33 36  0  0  0  0  0  0  0  0999 V2000
   -4.3786   -5.1199    0.0000 C   0  0  0  0  0  0  0  0  0  0  0  0
   -2.9520   -4.6564    0.0000 C   0  0  0  0  0  0  0  0  0  0  0  0
   -2.6401   -3.1891    0.0000 C   0  0  0  0  0  0  0  0  0  0  0  0
   -1.2135   -2.7256    0.0000 C   0  0  0  0  0  0  0  0  0  0  0  0
   -0.0000   -3.6073    0.0000 N   0  0  0  0  0  0  0  0  0  0  0  0
    1.2135   -2.7256    0.0000 N   0  0  0  0  0  0  0  0  0  0  0  0
    2.6401   -3.1891    0.0000 C   0  0  0  0  0  0  0  0  0  0  0  0
    0.7500   -1.2990    0.0000 C   0  0  0  0  0  0  0  0  0  0  0  0
    1.5000    0.0000    0.0000 C   0  0  0  0  0  0  0  0  0  0  0  0
    3.0000    0.0000    0.0000 O   0  0  0  0  0  0  0  0  0  0  0  0
    0.7500    1.2990    0.0000 N   0  0  0  0  0  0  0  0  0  0  0  0
   -0.7500    1.2990    0.0000 C   0  0  0  0  0  0  0  0  0  0  0  0
   -1.5000    2.5981    0.0000 C   0  0  0  0  0  0  0  0  0  0  0  0
   -0.7500    3.8971    0.0000 C   0  0  0  0  0  0  0  0  0  0  0  0
   -1.5000    5.1962    0.0000 C   0  0  0  0  0  0  0  0  0  0  0  0
   -0.7500    6.4952    0.0000 C   0  0  0  0  0  0  0  0  0  0  0  0
    0.7500    6.4952    0.0000 C   0  0  0  0  0  0  0  0  0  0  0  0
    1.6317    7.7087    0.0000 C   0  0  0  0  0  0  0  0  0  0  0  0
    3.0583    7.2452    0.0000 C   0  0  0  0  0  0  0  0  0  0  0  0
    3.0583    5.7452    0.0000 C   0  0  0  0  0  0  0  0  0  0  0  0
    4.2718    4.8635    0.0000 C   0  0  0  0  0  0  0  0  0  0  0  0
    5.6421    5.4736    0.0000 O   0  0  0  0  0  0  0  0  0  0  0  0
    4.1150    3.3717    0.0000 N   0  0  0  0  0  0  0  0  0  0  0  0
    5.3285    2.4901    0.0000 O   0  0  0  0  0  0  0  0  0  0  0  0
    1.6317    5.2817    0.0000 O   0  0  0  0  0  0  0  0  0  0  0  0
   -3.0000    5.1962    0.0000 C   0  0  0  0  0  0  0  0  0  0  0  0
   -3.7500    3.8971    0.0000 C   0  0  0  0  0  0  0  0  0  0  0  0
   -3.0000    2.5981    0.0000 C   0  0  0  0  0  0  0  0  0  0  0  0
   -3.7500    1.2990    0.0000 O   0  0  0  0  0  0  0  0  0  0  0  0
   -5.2500    1.2990    0.0000 C   0  0  0  0  0  0  0  0  0  0  0  0
   -6.0000    0.0000    0.0000 C   0  0  0  0  0  0  0  0  0  0  0  0
   -1.5000    0.0000    0.0000 N   0  0  0  0  0  0  0  0  0  0  0  0
   -0.7500   -1.2990    0.0000 C   0  0  0  0  0  0  0  0  0  0  0  0
  1  2  1  0
  2  3  1  0
  3  4  1  0
  4  5  2  0
  5  6  1  0
  6  7  1  0
  6  8  1  0
  8  9  1  0
  9 10  2  0
  9 11  1  0
 11 12  1  0
 12 13  1  0
 13 14  2  0
 14 15  1  0
 15 16  1  0
 16 17  1  0
 17 18  2  0
 18 19  1  0
 19 20  2  0
 20 21  1  0
 21 22  2  0
 21 23  1  0
 23 24  1  0
 20 25  1  0
 15 26  2  0
 26 27  1  0
 27 28  2  0
 28 29  1  0
 29 30  1  0
 30 31  1  0
 12 32  2  0
 32 33  1  0
 33  4  1  0
 33  8  2  0
 28 13  1  0
 25 17  1  0
M  END
>  <molecule_chembl_id>  (78) 
CHEMBL4214699

>  <canonical_smiles>  (78) 
CCCc1nn(C)c2c(=O)[nH]c(-c3cc(Cc4ccc(C(=O)NO)o4)ccc3OCC)nc12

>  <pchembl_value_mean>  (78) 
4.76

>  <document_chembl_id>  (78) 
CHEMBL4196089

$$$$

     RDKit          2D

 40 39  0  0  0  0  0  0  0  0999 V2000
    0.0000    0.0000    0.0000 C   0  0  0  0  0  0  0  0  0  0  0  0
    1.2990    0.7500    0.0000 C   0  0  0  0  0  0  0  0  0  0  0  0
    2.5981   -0.0000    0.0000 C   0  0  0  0  0  0  0  0  0  0  0  0
    3.8971    0.7500    0.0000 C   0  0  0  0  0  0  0  0  0  0  0  0
    5.1962   -0.0000    0.0000 C   0  0  0  0  0  0  0  0  0  0  0  0
    5.1962   -1.5000    0.0000 N   0  0  0  0  0  0  0  0  0  0  0  0
    6.4952   -2.2500    0.0000 C   0  0  0  0  0  0  0  0  0  0  0  0
    7.7942   -1.5000    0.0000 O   0  0  0  0  0  0  0  0  0  0  0  0
    6.4952   -3.7500    0.0000 C   0  0  0  0  0  0  0  0  0  0  0  0
    7.7942   -4.5000    0.0000 C   0  0  0  0  0  0  0  0  0  0  0  0
    9.0933   -3.7500    0.0000 O   0  0  0  0  0  0  0  0  0  0  0  0
    7.7942   -6.0000    0.0000 C   0  0  0  0  0  0  0  0  0  0  0  0
    9.0933   -6.7500    0.0000 C   0  0  0  0  0  0  0  0  0  0  0  0
    9.0933   -8.2500    0.0000 C   0  0  0  0  0  0  0  0  0  0  0  0
   10.3923   -9.0000    0.0000 C   0  0  0  0  0  0  0  0  0  0  0  0
   10.3923  -10.5000    0.0000 S   0  0  0  0  0  0  0  0  0  0  0  0
   11.6913  -11.2500    0.0000 S   0  0  0  0  0  0  0  0  0  0  0  0
   11.6913  -12.7500    0.0000 C   0  0  0  0  0  0  0  0  0  0  0  0
   12.9904  -13.5000    0.0000 C   0  0  0  0  0  0  0  0  0  0  0  0
   12.9904  -15.0000    0.0000 C   0  0  0  0  0  0  0  0  0  0  0  0
   14.2894  -15.7500    0.0000 C   0  0  0  0  0  0  0  0  0  0  0  0
   14.2894  -17.2500    0.0000 C   0  0  0  0  0  0  0  0  0  0  0  0
   12.9904  -18.0000    0.0000 O   0  0  0  0  0  0  0  0  0  0  0  0
   15.5885  -18.0000    0.0000 C   0  0  0  0  0  0  0  0  0  0  0  0
   15.5885  -19.5000    0.0000 C   0  0  0  0  0  0  0  0  0  0  0  0
   14.2894  -20.2500    0.0000 O   0  0  0  0  0  0  0  0  0  0  0  0
   16.8875  -20.2500    0.0000 N   0  0  0  0  0  0  0  0  0  0  0  0
   16.8875  -21.7500    0.0000 C   0  0  0  0  0  0  0  0  0  0  0  0
   18.1865  -22.5000    0.0000 C   0  0  0  0  0  0  0  0  0  0  0  0
   18.1865  -24.0000    0.0000 C   0  0  0  0  0  0  0  0  0  0  0  0
   19.4856  -24.7500    0.0000 C   0  0  0  0  0  0  0  0  0  0  0  0
   19.4856  -26.2500    0.0000 C   0  0  0  0  0  0  0  0  0  0  0  0
   15.5885  -22.5000    0.0000 C   0  0  0  0  0  0  0  0  0  0  0  0
   14.2894  -21.7500    0.0000 O   0  0  0  0  0  0  0  0  0  0  0  0
   15.5885  -24.0000    0.0000 O   0  0  0  0  0  0  0  0  0  0  0  0
   14.2894  -24.7500    0.0000 C   0  0  0  0  0  0  0  0  0  0  0  0
    6.4952    0.7500    0.0000 C   0  0  0  0  0  0  0  0  0  0  0  0
    6.4952    2.2500    0.0000 O   0  0  0  0  0  0  0  0  0  0  0  0
    7.7942   -0.0000    0.0000 O   0  0  0  0  0  0  0  0  0  0  0  0
    9.0933    0.7500    0.0000 C   0  0  0  0  0  0  0  0  0  0  0  0
  1  2  1  0
  2  3  1  0
  3  4  1  0
  4  5  1  0
  5  6  1  0
  6  7  1  0
  7  8  2  0
  7  9  1  0
  9 10  1  0
 10 11  1  0
 10 12  1  0
 12 13  2  3
 13 14  1  0
 14 15  1  0
 15 16  1  0
 16 17  1  0
 17 18  1  0
 18 19  1  0
 19 20  1  0
 20 21  2  3
 21 22  1  0
 22 23  1  0
 22 24  1  0
 24 25  1  0
 25 26  2  0
 25 27  1  0
 27 28  1  0
 28 29  1  0
 29 30  1  0
 30 31  1  0
 31 32  1  0
 28 33  1  0
 33 34  2  0
 33 35  1  0
 35 36  1  0
  5 37  1  0
 37 38  2  0
 37 39  1  0
 39 40  1  0
M  END
>  <molecule_chembl_id>  (79) 
CHEMBL5081652

>  <canonical_smiles>  (79) 
CCCCC(NC(=O)CC(O)C=CCCSSCCC=CC(O)CC(=O)NC(CCCC)C(=O)OC)C(=O)OC

>  <pchembl_value_mean>  (79) 
4.77

>  <document_chembl_id>  (79) 
CHEMBL5046273

$$$$

     RDKit          2D

 36 40  0  0  0  0  0  0  0  0999 V2000
    3.0000    0.0000    0.0000 N   0  0  0  0  0  0  0  0  0  0  0  0
    1.5000    0.0000    0.0000 C   0  0  0  0  0  0  0  0  0  0  0  0
    0.7500   -1.2990    0.0000 C   0  0  0  0  0  0  0  0  0  0  0  0
   -0.7500   -1.2990    0.0000 C   0  0  0  0  0  0  0  0  0  0  0  0
   -1.5000   -2.5981    0.0000 C   0  0  0  0  0  0  0  0  0  0  0  0
   -3.0000   -2.5981    0.0000 C   0  0  0  0  0  0  0  0  0  0  0  0
   -3.7500   -3.8971    0.0000 C   0  0  0  0  0  0  0  0  0  0  0  0
   -3.0000   -5.1962    0.0000 C   0  0  0  0  0  0  0  0  0  0  0  0
   -1.5000   -5.1962    0.0000 C   0  0  0  0  0  0  0  0  0  0  0  0
   -0.7500   -3.8971    0.0000 C   0  0  0  0  0  0  0  0  0  0  0  0
   -1.5000    0.0000    0.0000 C   0  0  0  0  0  0  0  0  0  0  0  0
   -0.7500    1.2990    0.0000 C   0  0  0  0  0  0  0  0  0  0  0  0
    0.7500    1.2990    0.0000 C   0  0  0  0  0  0  0  0  0  0  0  0
    1.5000    2.5981    0.0000 N   0  0  0  0  0  0  0  0  0  0  0  0
    0.7500    3.8971    0.0000 C   0  0  0  0  0  0  0  0  0  0  0  0
   -0.7500    3.8971    0.0000 O   0  0  0  0  0  0  0  0  0  0  0  0
    1.5000    5.1962    0.0000 C   0  0  0  0  0  0  0  0  0  0  0  0
    3.0000    5.1962    0.0000 C   0  0  0  0  0  0  0  0  0  0  0  0
    3.7500    6.4952    0.0000 C   0  0  0  0  0  0  0  0  0  0  0  0
    3.0000    7.7942    0.0000 C   0  0  0  0  0  0  0  0  0  0  0  0
    3.7500    9.0933    0.0000 C   0  0  0  0  0  0  0  0  0  0  0  0
    5.2500    9.0933    0.0000 N   0  0  0  0  0  0  0  0  0  0  0  0
    6.0000   10.3923    0.0000 C   0  0  0  0  0  0  0  0  0  0  0  0
    7.5000   10.3923    0.0000 N   0  0  0  0  0  0  0  0  0  0  0  0
    8.2500   11.6913    0.0000 C   0  0  0  0  0  0  0  0  0  0  0  0
    7.5000   12.9904    0.0000 C   0  0  0  0  0  0  0  0  0  0  0  0
    6.0000   12.9904    0.0000 C   0  0  0  0  0  0  0  0  0  0  0  0
    5.2500   14.2894    0.0000 C   0  0  0  0  0  0  0  0  0  0  0  0
    6.0000   15.5885    0.0000 C   0  0  0  0  0  0  0  0  0  0  0  0
    5.2500   16.8875    0.0000 C   0  0  0  0  0  0  0  0  0  0  0  0
    3.7500   16.8875    0.0000 C   0  0  0  0  0  0  0  0  0  0  0  0
    3.0000   15.5885    0.0000 N   0  0  0  0  0  0  0  0  0  0  0  0
    3.7500   14.2894    0.0000 C   0  0  0  0  0  0  0  0  0  0  0  0
    5.2500   11.6913    0.0000 N   0  0  0  0  0  0  0  0  0  0  0  0
    1.5000    7.7942    0.0000 C   0  0  0  0  0  0  0  0  0  0  0  0
    0.7500    6.4952    0.0000 C   0  0  0  0  0  0  0  0  0  0  0  0
  1  2  1  0
  2  3  2  0
  3  4  1  0
  4  5  1  0
  5  6  2  0
  6  7  1  0
  7  8  2  0
  8  9  1  0
  9 10  2  0
  4 11  2  0
 11 12  1  0
 12 13  2  0
 13 14  1  0
 14 15  1  0
 15 16  2  0
 15 17  1  0
 17 18  2  0
 18 19  1  0
 19 20  2  0
 20 21  1  0
 21 22  1  0
 22 23  1  0
 23 24  2  0
 24 25  1  0
 25 26  2  0
 26 27  1  0
 27 28  1  0
 28 29  2  0
 29 30  1  0
 30 31  2  0
 31 32  1  0
 32 33  2  0
 27 34  2  0
 20 35  1  0
 35 36  2  0
 13  2  1  0
 36 17  1  0
 10  5  1  0
 34 23  1  0
 33 28  1  0
M  END
>  <molecule_chembl_id>  (80) 
CHEMBL2407740

>  <canonical_smiles>  (80) 
Nc1cc(-c2ccccc2)ccc1NC(=O)c1ccc(CNc2nccc(-c3cccnc3)n2)cc1

>  <pchembl_value_mean>  (80) 
4.78

>  <document_chembl_id>  (80) 
CHEMBL2407081

$$$$

     RDKit          2D

 22 23  0  0  0  0  0  0  0  0999 V2000
    3.0000    0.0000    0.0000 C   0  0  0  0  0  0  0  0  0  0  0  0
    1.5000    0.0000    0.0000 N   0  0  0  0  0  0  0  0  0  0  0  0
    0.7500   -1.2990    0.0000 C   0  0  0  0  0  0  0  0  0  0  0  0
   -0.7500   -1.2990    0.0000 C   0  0  0  0  0  0  0  0  0  0  0  0
   -1.5000    0.0000    0.0000 N   0  0  0  0  0  0  0  0  0  0  0  0
   -3.0000    0.0000    0.0000 C   0  0  0  0  0  0  0  0  0  0  0  0
   -3.7500    1.2990    0.0000 C   0  0  0  0  0  0  0  0  0  0  0  0
   -5.2500    1.2990    0.0000 N   0  0  0  0  0  0  0  0  0  0  0  0
   -6.0000    2.5981    0.0000 C   0  0  0  0  0  0  0  0  0  0  0  0
   -5.2500    3.8971    0.0000 O   0  0  0  0  0  0  0  0  0  0  0  0
   -7.5000    2.5981    0.0000 C   0  0  0  0  0  0  0  0  0  0  0  0
   -8.2500    3.8971    0.0000 C   0  0  0  0  0  0  0  0  0  0  0  0
   -9.7500    3.8971    0.0000 C   0  0  0  0  0  0  0  0  0  0  0  0
  -10.5000    2.5981    0.0000 C   0  0  0  0  0  0  0  0  0  0  0  0
  -12.0000    2.5981    0.0000 C   0  0  0  0  0  0  0  0  0  0  0  0
  -12.7500    1.2990    0.0000 O   0  0  0  0  0  0  0  0  0  0  0  0
  -12.7500    3.8971    0.0000 N   0  0  0  0  0  0  0  0  0  0  0  0
  -14.2500    3.8971    0.0000 O   0  0  0  0  0  0  0  0  0  0  0  0
   -9.7500    1.2990    0.0000 C   0  0  0  0  0  0  0  0  0  0  0  0
   -8.2500    1.2990    0.0000 C   0  0  0  0  0  0  0  0  0  0  0  0
   -0.7500    1.2990    0.0000 C   0  0  0  0  0  0  0  0  0  0  0  0
    0.7500    1.2990    0.0000 C   0  0  0  0  0  0  0  0  0  0  0  0
  1  2  1  0
  2  3  1  0
  3  4  1  0
  4  5  1  0
  5  6  1  0
  6  7  1  0
  7  8  1  0
  8  9  1  0
  9 10  2  0
  9 11  1  0
 11 12  2  0
 12 13  1  0
 13 14  2  0
 14 15  1  0
 15 16  2  0
 15 17  1  0
 17 18  1  0
 14 19  1  0
 19 20  2  0
  5 21  1  0
 21 22  1  0
 22  2  1  0
 20 11  1  0
M  END
>  <molecule_chembl_id>  (81) 
CHEMBL2333338

>  <canonical_smiles>  (81) 
CN1CCN(CCNC(=O)c2ccc(C(=O)NO)cc2)CC1

>  <pchembl_value_mean>  (81) 
4.78

>  <document_chembl_id>  (81) 
CHEMBL2331470

$$$$

     RDKit          2D

 25 27  0  0  0  0  0  0  0  0999 V2000
  -11.1988   -3.1002    0.0000 O   0  0  0  0  0  0  0  0  0  0  0  0
   -9.8285   -2.4901    0.0000 C   0  0  0  0  0  0  0  0  0  0  0  0
   -8.6150   -3.3717    0.0000 C   0  0  0  0  0  0  0  0  0  0  0  0
   -8.7718   -4.8635    0.0000 C   0  0  0  0  0  0  0  0  0  0  0  0
   -7.5583   -5.7452    0.0000 C   0  0  0  0  0  0  0  0  0  0  0  0
   -7.5583   -7.2452    0.0000 C   0  0  0  0  0  0  0  0  0  0  0  0
   -6.1317   -7.7087    0.0000 C   0  0  0  0  0  0  0  0  0  0  0  0
   -5.2500   -6.4952    0.0000 N   0  0  0  0  0  0  0  0  0  0  0  0
   -3.7500   -6.4952    0.0000 C   0  0  0  0  0  0  0  0  0  0  0  0
   -3.0000   -5.1962    0.0000 C   0  0  0  0  0  0  0  0  0  0  0  0
   -1.5000   -5.1962    0.0000 C   0  0  0  0  0  0  0  0  0  0  0  0
   -0.7500   -3.8971    0.0000 C   0  0  0  0  0  0  0  0  0  0  0  0
    0.7500   -3.8971    0.0000 C   0  0  0  0  0  0  0  0  0  0  0  0
    1.5000   -2.5981    0.0000 C   0  0  0  0  0  0  0  0  0  0  0  0
    0.7500   -1.2990    0.0000 C   0  0  0  0  0  0  0  0  0  0  0  0
    1.5000    0.0000    0.0000 C   0  0  0  0  0  0  0  0  0  0  0  0
    0.7500    1.2990    0.0000 C   0  0  0  0  0  0  0  0  0  0  0  0
   -0.7500    1.2990    0.0000 C   0  0  0  0  0  0  0  0  0  0  0  0
   -1.5000    0.0000    0.0000 C   0  0  0  0  0  0  0  0  0  0  0  0
   -0.7500   -1.2990    0.0000 C   0  0  0  0  0  0  0  0  0  0  0  0
   -1.5000   -2.5981    0.0000 C   0  0  0  0  0  0  0  0  0  0  0  0
   -6.1317   -5.2817    0.0000 C   0  0  0  0  0  0  0  0  0  0  0  0
   -5.6682   -3.8551    0.0000 O   0  0  0  0  0  0  0  0  0  0  0  0
   -9.6717   -0.9983    0.0000 N   0  0  0  0  0  0  0  0  0  0  0  0
  -10.8853   -0.1166    0.0000 O   0  0  0  0  0  0  0  0  0  0  0  0
  1  2  2  0
  2  3  1  0
  3  4  1  0
  4  5  1  0
  5  6  2  0
  6  7  1  0
  7  8  1  0
  8  9  1  0
  9 10  1  0
 10 11  1  0
 11 12  1  0
 12 13  2  0
 13 14  1  0
 14 15  2  0
 15 16  1  0
 16 17  2  0
 17 18  1  0
 18 19  2  0
 19 20  1  0
 20 21  2  0
  8 22  1  0
 22 23  2  0
  2 24  1  0
 24 25  1  0
 22  5  1  0
 21 12  1  0
 20 15  1  0
M  END
>  <molecule_chembl_id>  (82) 
CHEMBL1668018

>  <canonical_smiles>  (82) 
O=C(CCC1=CCN(CCCc2ccc3ccccc3c2)C1=O)NO

>  <pchembl_value_mean>  (82) 
4.79

>  <document_chembl_id>  (82) 
CHEMBL1667837

$$$$

     RDKit          2D

 19 21  0  0  0  0  0  0  0  0999 V2000
   -2.6401   -3.1891    0.0000 O   0  0  0  0  0  0  0  0  0  0  0  0
   -1.2135   -2.7256    0.0000 C   0  0  0  0  0  0  0  0  0  0  0  0
   -0.0000   -3.6073    0.0000 C   0  0  0  0  0  0  0  0  0  0  0  0
   -0.0000   -5.1073    0.0000 C   0  0  0  0  0  0  0  0  0  0  0  0
   -1.2990   -5.8573    0.0000 C   0  0  0  0  0  0  0  0  0  0  0  0
   -2.5981   -5.1073    0.0000 C   0  0  0  0  0  0  0  0  0  0  0  0
   -3.8971   -5.8573    0.0000 C   0  0  0  0  0  0  0  0  0  0  0  0
   -3.8971   -7.3573    0.0000 C   0  0  0  0  0  0  0  0  0  0  0  0
   -2.5981   -8.1073    0.0000 C   0  0  0  0  0  0  0  0  0  0  0  0
   -2.5981   -9.6073    0.0000 O   0  0  0  0  0  0  0  0  0  0  0  0
   -1.2990   -7.3573    0.0000 C   0  0  0  0  0  0  0  0  0  0  0  0
   -0.0000   -8.1073    0.0000 O   0  0  0  0  0  0  0  0  0  0  0  0
    1.2135   -2.7256    0.0000 O   0  0  0  0  0  0  0  0  0  0  0  0
    0.7500   -1.2990    0.0000 C   0  0  0  0  0  0  0  0  0  0  0  0
    1.5000    0.0000    0.0000 C   0  0  0  0  0  0  0  0  0  0  0  0
    0.7500    1.2990    0.0000 C   0  0  0  0  0  0  0  0  0  0  0  0
   -0.7500    1.2990    0.0000 C   0  0  0  0  0  0  0  0  0  0  0  0
   -1.5000    0.0000    0.0000 C   0  0  0  0  0  0  0  0  0  0  0  0
   -0.7500   -1.2990    0.0000 C   0  0  0  0  0  0  0  0  0  0  0  0
  1  2  2  0
  2  3  1  0
  3  4  2  3
  4  5  1  0
  5  6  2  0
  6  7  1  0
  7  8  2  0
  8  9  1  0
  9 10  1  0
  9 11  2  0
 11 12  1  0
  3 13  1  0
 13 14  1  0
 14 15  2  0
 15 16  1  0
 16 17  2  0
 17 18  1  0
 18 19  2  0
 19  2  1  0
 11  5  1  0
 19 14  1  0
M  END
>  <molecule_chembl_id>  (83) 
CHEMBL3355256

>  <canonical_smiles>  (83) 
O=C1C(=Cc2cccc(O)c2O)Oc2ccccc21

>  <pchembl_value_mean>  (83) 
4.79

>  <document_chembl_id>  (83) 
CHEMBL3352210

$$$$

     RDKit          2D

 26 27  0  0  0  0  0  0  0  0999 V2000
    5.2500   -1.2990    0.0000 C   0  0  0  0  0  0  0  0  0  0  0  0
    3.7500   -1.2990    0.0000 O   0  0  0  0  0  0  0  0  0  0  0  0
    3.0000    0.0000    0.0000 C   0  0  0  0  0  0  0  0  0  0  0  0
    3.7500    1.2990    0.0000 O   0  0  0  0  0  0  0  0  0  0  0  0
    1.5000    0.0000    0.0000 C   0  0  0  0  0  0  0  0  0  0  0  0
    0.7500   -1.2990    0.0000 C   0  0  0  0  0  0  0  0  0  0  0  0
   -0.7500   -1.2990    0.0000 C   0  0  0  0  0  0  0  0  0  0  0  0
   -1.5000    0.0000    0.0000 C   0  0  0  0  0  0  0  0  0  0  0  0
   -3.0000    0.0000    0.0000 C   0  0  0  0  0  0  0  0  0  0  0  0
   -3.7500    1.2990    0.0000 O   0  0  0  0  0  0  0  0  0  0  0  0
   -5.2500    1.2990    0.0000 N   0  0  0  0  0  0  0  0  0  0  0  0
   -6.0000    2.5981    0.0000 C   0  0  0  0  0  0  0  0  0  0  0  0
   -7.5000    2.5981    0.0000 C   0  0  0  0  0  0  0  0  0  0  0  0
   -8.2500    3.8971    0.0000 C   0  0  0  0  0  0  0  0  0  0  0  0
   -9.7500    3.8971    0.0000 C   0  0  0  0  0  0  0  0  0  0  0  0
  -10.5000    2.5981    0.0000 C   0  0  0  0  0  0  0  0  0  0  0  0
  -12.0000    2.5981    0.0000 C   0  0  0  0  0  0  0  0  0  0  0  0
  -12.7500    3.8971    0.0000 C   0  0  0  0  0  0  0  0  0  0  0  0
  -14.2500    3.8971    0.0000 C   0  0  0  0  0  0  0  0  0  0  0  0
  -15.0000    2.5981    0.0000 O   0  0  0  0  0  0  0  0  0  0  0  0
  -15.0000    5.1962    0.0000 N   0  0  0  0  0  0  0  0  0  0  0  0
  -16.5000    5.1962    0.0000 O   0  0  0  0  0  0  0  0  0  0  0  0
   -9.7500    1.2990    0.0000 C   0  0  0  0  0  0  0  0  0  0  0  0
   -8.2500    1.2990    0.0000 C   0  0  0  0  0  0  0  0  0  0  0  0
   -0.7500    1.2990    0.0000 C   0  0  0  0  0  0  0  0  0  0  0  0
    0.7500    1.2990    0.0000 C   0  0  0  0  0  0  0  0  0  0  0  0
  1  2  1  0
  2  3  1  0
  3  4  2  0
  3  5  1  0
  5  6  2  0
  6  7  1  0
  7  8  2  0
  8  9  1  0
  9 10  1  0
 10 11  1  0
 11 12  2  3
 12 13  1  0
 13 14  2  0
 14 15  1  0
 15 16  2  0
 16 17  1  0
 17 18  2  3
 18 19  1  0
 19 20  2  0
 19 21  1  0
 21 22  1  0
 16 23  1  0
 23 24  2  0
  8 25  1  0
 25 26  2  0
 26  5  1  0
 24 13  1  0
M  END
>  <molecule_chembl_id>  (84) 
CHEMBL471043

>  <canonical_smiles>  (84) 
COC(=O)c1ccc(CON=Cc2ccc(C=CC(=O)NO)cc2)cc1

>  <pchembl_value_mean>  (84) 
4.8

>  <document_chembl_id>  (84) 
CHEMBL1153969

$$$$

     RDKit          2D

 31 34  0  0  0  0  0  0  0  0999 V2000
   -5.3655    4.7370    0.0000 O   0  0  0  0  0  0  0  0  0  0  0  0
   -3.9796    4.1630    0.0000 C   0  0  0  0  0  0  0  0  0  0  0  0
   -2.7896    5.0761    0.0000 N   0  0  0  0  0  0  0  0  0  0  0  0
   -2.9854    6.5633    0.0000 O   0  0  0  0  0  0  0  0  0  0  0  0
   -3.7838    2.6758    0.0000 C   0  0  0  0  0  0  0  0  0  0  0  0
   -2.3980    2.1018    0.0000 C   0  0  0  0  0  0  0  0  0  0  0  0
   -2.2022    0.6146    0.0000 C   0  0  0  0  0  0  0  0  0  0  0  0
   -3.3923   -0.2985    0.0000 C   0  0  0  0  0  0  0  0  0  0  0  0
   -3.1965   -1.7857    0.0000 C   0  0  0  0  0  0  0  0  0  0  0  0
   -1.8107   -2.3597    0.0000 N   0  0  0  0  0  0  0  0  0  0  0  0
   -1.8107   -3.8597    0.0000 C   0  0  0  0  0  0  0  0  0  0  0  0
   -3.2595   -4.2479    0.0000 C   0  0  0  0  0  0  0  0  0  0  0  0
   -3.6478   -5.6968    0.0000 C   0  0  0  0  0  0  0  0  0  0  0  0
   -5.0967   -6.0850    0.0000 C   0  0  0  0  0  0  0  0  0  0  0  0
   -6.5456   -6.4733    0.0000 F   0  0  0  0  0  0  0  0  0  0  0  0
   -5.4849   -4.6362    0.0000 F   0  0  0  0  0  0  0  0  0  0  0  0
   -4.7084   -7.5339    0.0000 F   0  0  0  0  0  0  0  0  0  0  0  0
   -2.5871   -6.7575    0.0000 C   0  0  0  0  0  0  0  0  0  0  0  0
   -1.1382   -6.3692    0.0000 C   0  0  0  0  0  0  0  0  0  0  0  0
   -0.7500   -4.9204    0.0000 C   0  0  0  0  0  0  0  0  0  0  0  0
    0.7500   -4.9204    0.0000 C   0  0  0  0  0  0  0  0  0  0  0  0
    1.8107   -3.8597    0.0000 C   0  0  0  0  0  0  0  0  0  0  0  0
    1.8107   -2.3597    0.0000 C   0  0  0  0  0  0  0  0  0  0  0  0
    0.7500   -1.2990    0.0000 C   0  0  0  0  0  0  0  0  0  0  0  0
    1.5000    0.0000    0.0000 C   0  0  0  0  0  0  0  0  0  0  0  0
    0.7500    1.2990    0.0000 C   0  0  0  0  0  0  0  0  0  0  0  0
   -0.7500    1.2990    0.0000 C   0  0  0  0  0  0  0  0  0  0  0  0
   -1.5000    0.0000    0.0000 C   0  0  0  0  0  0  0  0  0  0  0  0
   -0.7500   -1.2990    0.0000 C   0  0  0  0  0  0  0  0  0  0  0  0
   -4.7781    0.2755    0.0000 C   0  0  0  0  0  0  0  0  0  0  0  0
   -4.9739    1.7627    0.0000 C   0  0  0  0  0  0  0  0  0  0  0  0
  1  2  2  0
  2  3  1  0
  3  4  1  0
  2  5  1  0
  5  6  2  0
  6  7  1  0
  7  8  2  0
  8  9  1  0
  9 10  1  0
 10 11  1  0
 11 12  2  0
 12 13  1  0
 13 14  1  0
 14 15  1  0
 14 16  1  0
 14 17  1  0
 13 18  2  0
 18 19  1  0
 19 20  2  0
 20 21  1  0
 21 22  1  0
 22 23  1  0
 23 24  1  0
 24 25  1  0
 25 26  1  0
 26 27  1  0
 27 28  1  0
 28 29  1  0
  8 30  1  0
 30 31  2  0
 31  5  1  0
 29 10  1  0
 20 11  1  0
 29 24  1  0
M  END
>  <molecule_chembl_id>  (85) 
CHEMBL4450128

>  <canonical_smiles>  (85) 
O=C(NO)c1ccc(CN2c3cc(C(F)(F)F)ccc3CCCC3CCCCC32)cc1

>  <pchembl_value_mean>  (85) 
4.8

>  <document_chembl_id>  (85) 
CHEMBL4422610

$$$$

     RDKit          2D

 39 41  0  0  0  0  0  0  0  0999 V2000
   12.7500   -6.4952    0.0000 C   0  0  0  0  0  0  0  0  0  0  0  0
   12.0000   -5.1962    0.0000 O   0  0  0  0  0  0  0  0  0  0  0  0
   10.5000   -5.1962    0.0000 C   0  0  0  0  0  0  0  0  0  0  0  0
    9.7500   -6.4952    0.0000 O   0  0  0  0  0  0  0  0  0  0  0  0
    9.7500   -3.8971    0.0000 C   0  0  0  0  0  0  0  0  0  0  0  0
    8.2500   -3.8971    0.0000 C   0  0  0  0  0  0  0  0  0  0  0  0
    7.5000   -2.5981    0.0000 C   0  0  0  0  0  0  0  0  0  0  0  0
    6.0000   -2.5981    0.0000 C   0  0  0  0  0  0  0  0  0  0  0  0
    5.2500   -1.2990    0.0000 C   0  0  0  0  0  0  0  0  0  0  0  0
    3.7500   -1.2990    0.0000 C   0  0  0  0  0  0  0  0  0  0  0  0
    3.0000    0.0000    0.0000 C   0  0  0  0  0  0  0  0  0  0  0  0
    1.5000    0.0000    0.0000 C   0  0  0  0  0  0  0  0  0  0  0  0
    0.7500   -1.2990    0.0000 C   0  0  0  0  0  0  0  0  0  0  0  0
   -0.7500   -1.2990    0.0000 C   0  0  0  0  0  0  0  0  0  0  0  0
   -1.5000    0.0000    0.0000 C   0  0  0  0  0  0  0  0  0  0  0  0
   -3.0000    0.0000    0.0000 N   0  0  0  0  0  0  0  0  0  0  0  0
   -3.8817   -1.2135    0.0000 C   0  0  0  0  0  0  0  0  0  0  0  0
   -3.4182   -2.6401    0.0000 S   0  0  0  0  0  0  0  0  0  0  0  0
   -5.3083   -0.7500    0.0000 N   0  0  0  0  0  0  0  0  0  0  0  0
   -6.5218   -1.6317    0.0000 C   0  0  0  0  0  0  0  0  0  0  0  0
   -7.8921   -1.0216    0.0000 C   0  0  0  0  0  0  0  0  0  0  0  0
   -9.1056   -1.9033    0.0000 C   0  0  0  0  0  0  0  0  0  0  0  0
   -8.9488   -3.3950    0.0000 C   0  0  0  0  0  0  0  0  0  0  0  0
  -10.1624   -4.2767    0.0000 C   0  0  0  0  0  0  0  0  0  0  0  0
  -11.3759   -5.1584    0.0000 N   0  0  0  0  0  0  0  0  0  0  0  0
   -7.5785   -4.0051    0.0000 C   0  0  0  0  0  0  0  0  0  0  0  0
   -7.4217   -5.4969    0.0000 C   0  0  0  0  0  0  0  0  0  0  0  0
   -7.2649   -6.9887    0.0000 F   0  0  0  0  0  0  0  0  0  0  0  0
   -5.9299   -5.3401    0.0000 F   0  0  0  0  0  0  0  0  0  0  0  0
   -8.9135   -5.6537    0.0000 F   0  0  0  0  0  0  0  0  0  0  0  0
   -6.3650   -3.1235    0.0000 C   0  0  0  0  0  0  0  0  0  0  0  0
   -5.3083    0.7500    0.0000 C   0  0  0  0  0  0  0  0  0  0  0  0
   -6.5218    1.6317    0.0000 O   0  0  0  0  0  0  0  0  0  0  0  0
   -3.8817    1.2135    0.0000 C   0  0  0  0  0  0  0  0  0  0  0  0
   -4.4918    2.5838    0.0000 C   0  0  0  0  0  0  0  0  0  0  0  0
   -2.5826    1.9635    0.0000 C   0  0  0  0  0  0  0  0  0  0  0  0
   -0.7500    1.2990    0.0000 C   0  0  0  0  0  0  0  0  0  0  0  0
    0.7500    1.2990    0.0000 C   0  0  0  0  0  0  0  0  0  0  0  0
    1.5000    2.5981    0.0000 F   0  0  0  0  0  0  0  0  0  0  0  0
  1  2  1  0
  2  3  1  0
  3  4  2  0
  3  5  1  0
  5  6  1  0
  6  7  1  0
  7  8  1  0
  8  9  1  0
  9 10  1  0
 10 11  1  0
 11 12  1  0
 12 13  2  0
 13 14  1  0
 14 15  2  0
 15 16  1  0
 16 17  1  0
 17 18  2  0
 17 19  1  0
 19 20  1  0
 20 21  2  0
 21 22  1  0
 22 23  2  0
 23 24  1  0
 24 25  3  0
 23 26  1  0
 26 27  1  0
 27 28  1  0
 27 29  1  0
 27 30  1  0
 26 31  2  0
 19 32  1  0
 32 33  2  0
 32 34  1  0
 34 35  1  0
 34 36  1  0
 15 37  1  0
 37 38  2  0
 38 39  1  0
 38 12  1  0
 34 16  1  0
 31 20  1  0
M  END
>  <molecule_chembl_id>  (86) 
CHEMBL3979648

>  <canonical_smiles>  (86) 
COC(=O)CCCCCCCc1ccc(N2C(=S)N(c3ccc(C#N)c(C(F)(F)F)c3)C(=O)C2(C)C)cc1F

>  <pchembl_value_mean>  (86) 
4.82

>  <document_chembl_id>  (86) 
CHEMBL3862016

$$$$

     RDKit          2D

 35 38  0  0  0  0  0  0  0  0999 V2000
   -4.3786   -5.1199    0.0000 C   0  0  0  0  0  0  0  0  0  0  0  0
   -2.9520   -4.6564    0.0000 C   0  0  0  0  0  0  0  0  0  0  0  0
   -2.6401   -3.1891    0.0000 C   0  0  0  0  0  0  0  0  0  0  0  0
   -1.2135   -2.7256    0.0000 C   0  0  0  0  0  0  0  0  0  0  0  0
   -0.0000   -3.6073    0.0000 N   0  0  0  0  0  0  0  0  0  0  0  0
    1.2135   -2.7256    0.0000 N   0  0  0  0  0  0  0  0  0  0  0  0
    2.6401   -3.1891    0.0000 C   0  0  0  0  0  0  0  0  0  0  0  0
    0.7500   -1.2990    0.0000 C   0  0  0  0  0  0  0  0  0  0  0  0
    1.5000    0.0000    0.0000 C   0  0  0  0  0  0  0  0  0  0  0  0
    3.0000    0.0000    0.0000 O   0  0  0  0  0  0  0  0  0  0  0  0
    0.7500    1.2990    0.0000 N   0  0  0  0  0  0  0  0  0  0  0  0
   -0.7500    1.2990    0.0000 C   0  0  0  0  0  0  0  0  0  0  0  0
   -1.5000    2.5981    0.0000 C   0  0  0  0  0  0  0  0  0  0  0  0
   -0.7500    3.8971    0.0000 C   0  0  0  0  0  0  0  0  0  0  0  0
   -1.5000    5.1962    0.0000 C   0  0  0  0  0  0  0  0  0  0  0  0
   -0.7500    6.4952    0.0000 C   0  0  0  0  0  0  0  0  0  0  0  0
    0.7500    6.4952    0.0000 C   0  0  0  0  0  0  0  0  0  0  0  0
    1.5000    5.1962    0.0000 C   0  0  0  0  0  0  0  0  0  0  0  0
    3.0000    5.1962    0.0000 C   0  0  0  0  0  0  0  0  0  0  0  0
    3.7500    6.4952    0.0000 C   0  0  0  0  0  0  0  0  0  0  0  0
    5.2500    6.4952    0.0000 C   0  0  0  0  0  0  0  0  0  0  0  0
    6.0000    7.7942    0.0000 O   0  0  0  0  0  0  0  0  0  0  0  0
    6.0000    5.1962    0.0000 N   0  0  0  0  0  0  0  0  0  0  0  0
    7.5000    5.1962    0.0000 O   0  0  0  0  0  0  0  0  0  0  0  0
    3.0000    7.7942    0.0000 C   0  0  0  0  0  0  0  0  0  0  0  0
    1.5000    7.7942    0.0000 C   0  0  0  0  0  0  0  0  0  0  0  0
    0.7500    9.0933    0.0000 F   0  0  0  0  0  0  0  0  0  0  0  0
   -3.0000    5.1962    0.0000 C   0  0  0  0  0  0  0  0  0  0  0  0
   -3.7500    3.8971    0.0000 C   0  0  0  0  0  0  0  0  0  0  0  0
   -3.0000    2.5981    0.0000 C   0  0  0  0  0  0  0  0  0  0  0  0
   -3.7500    1.2990    0.0000 O   0  0  0  0  0  0  0  0  0  0  0  0
   -5.2500    1.2990    0.0000 C   0  0  0  0  0  0  0  0  0  0  0  0
   -6.0000    0.0000    0.0000 C   0  0  0  0  0  0  0  0  0  0  0  0
   -1.5000    0.0000    0.0000 N   0  0  0  0  0  0  0  0  0  0  0  0
   -0.7500   -1.2990    0.0000 C   0  0  0  0  0  0  0  0  0  0  0  0
  1  2  1  0
  2  3  1  0
  3  4  1  0
  4  5  2  0
  5  6  1  0
  6  7  1  0
  6  8  1  0
  8  9  1  0
  9 10  2  0
  9 11  1  0
 11 12  1  0
 12 13  1  0
 13 14  2  0
 14 15  1  0
 15 16  1  0
 16 17  1  0
 17 18  2  0
 18 19  1  0
 19 20  2  0
 20 21  1  0
 21 22  2  0
 21 23  1  0
 23 24  1  0
 20 25  1  0
 25 26  2  0
 26 27  1  0
 15 28  2  0
 28 29  1  0
 29 30  2  0
 30 31  1  0
 31 32  1  0
 32 33  1  0
 12 34  2  0
 34 35  1  0
 35  4  1  0
 35  8  2  0
 30 13  1  0
 26 17  1  0
M  END
>  <molecule_chembl_id>  (87) 
CHEMBL4204146

>  <canonical_smiles>  (87) 
CCCc1nn(C)c2c(=O)[nH]c(-c3cc(Cc4ccc(C(=O)NO)cc4F)ccc3OCC)nc12

>  <pchembl_value_mean>  (87) 
4.84

>  <document_chembl_id>  (87) 
CHEMBL4196089

$$$$

     RDKit          2D

 20 21  0  0  0  0  0  0  0  0999 V2000
    3.7500    1.2990    0.0000 O   0  0  0  0  0  0  0  0  0  0  0  0
    3.0000    0.0000    0.0000 C   0  0  0  0  0  0  0  0  0  0  0  0
    3.7500   -1.2990    0.0000 N   0  0  0  0  0  0  0  0  0  0  0  0
    5.2500   -1.2990    0.0000 O   0  0  0  0  0  0  0  0  0  0  0  0
    1.5000    0.0000    0.0000 C   0  0  0  0  0  0  0  0  0  0  0  0
    0.7500   -1.2990    0.0000 C   0  0  0  0  0  0  0  0  0  0  0  0
   -0.7500   -1.2990    0.0000 C   0  0  0  0  0  0  0  0  0  0  0  0
   -1.5000    0.0000    0.0000 C   0  0  0  0  0  0  0  0  0  0  0  0
   -0.7500    1.2990    0.0000 C   0  0  0  0  0  0  0  0  0  0  0  0
   -1.5000    2.5981    0.0000 S   0  0  0  0  0  0  0  0  0  0  0  0
   -0.2010    3.3481    0.0000 O   0  0  0  0  0  0  0  0  0  0  0  0
   -2.7990    1.8481    0.0000 O   0  0  0  0  0  0  0  0  0  0  0  0
   -2.2500    3.8971    0.0000 N   0  0  0  0  0  0  0  0  0  0  0  0
   -3.7500    3.8971    0.0000 C   0  0  0  0  0  0  0  0  0  0  0  0
   -4.5000    5.1962    0.0000 C   0  0  0  0  0  0  0  0  0  0  0  0
   -6.0000    5.1962    0.0000 C   0  0  0  0  0  0  0  0  0  0  0  0
   -6.7500    3.8971    0.0000 C   0  0  0  0  0  0  0  0  0  0  0  0
   -6.0000    2.5981    0.0000 C   0  0  0  0  0  0  0  0  0  0  0  0
   -4.5000    2.5981    0.0000 C   0  0  0  0  0  0  0  0  0  0  0  0
    0.7500    1.2990    0.0000 C   0  0  0  0  0  0  0  0  0  0  0  0
  1  2  2  0
  2  3  1  0
  3  4  1  0
  2  5  1  0
  5  6  2  0
  6  7  1  0
  7  8  2  0
  8  9  1  0
  9 10  1  0
 10 11  2  0
 10 12  2  0
 10 13  1  0
 13 14  1  0
 14 15  2  0
 15 16  1  0
 16 17  2  0
 17 18  1  0
 18 19  2  0
  9 20  2  0
 20  5  1  0
 19 14  1  0
M  END
>  <molecule_chembl_id>  (88) 
CHEMBL4206936

>  <canonical_smiles>  (88) 
O=C(NO)c1cccc(S(=O)(=O)Nc2ccccc2)c1

>  <pchembl_value_mean>  (88) 
4.84

>  <document_chembl_id>  (88) 
CHEMBL4196083

$$$$

     RDKit          2D

 25 26  0  0  0  0  0  0  0  0999 V2000
    6.0000    0.0000    0.0000 O   0  0  0  0  0  0  0  0  0  0  0  0
    5.2500   -1.2990    0.0000 C   0  0  0  0  0  0  0  0  0  0  0  0
    6.0000   -2.5981    0.0000 C   0  0  0  0  0  0  0  0  0  0  0  0
    7.5000   -2.5981    0.0000 C   0  0  0  0  0  0  0  0  0  0  0  0
    8.2500   -3.8971    0.0000 C   0  0  0  0  0  0  0  0  0  0  0  0
    9.7500   -3.8971    0.0000 C   0  0  0  0  0  0  0  0  0  0  0  0
   10.5000   -5.1962    0.0000 C   0  0  0  0  0  0  0  0  0  0  0  0
   12.0000   -5.1962    0.0000 C   0  0  0  0  0  0  0  0  0  0  0  0
   12.7500   -6.4952    0.0000 S   0  0  0  0  0  0  0  0  0  0  0  0
    3.7500   -1.2990    0.0000 N   0  0  0  0  0  0  0  0  0  0  0  0
    3.0000    0.0000    0.0000 C   0  0  0  0  0  0  0  0  0  0  0  0
    1.5000    0.0000    0.0000 C   0  0  0  0  0  0  0  0  0  0  0  0
    0.7500   -1.2990    0.0000 C   0  0  0  0  0  0  0  0  0  0  0  0
   -0.7500   -1.2990    0.0000 C   0  0  0  0  0  0  0  0  0  0  0  0
   -1.5000    0.0000    0.0000 C   0  0  0  0  0  0  0  0  0  0  0  0
   -0.7500    1.2990    0.0000 C   0  0  0  0  0  0  0  0  0  0  0  0
   -1.5000    2.5981    0.0000 O   0  0  0  0  0  0  0  0  0  0  0  0
   -0.7500    3.8971    0.0000 C   0  0  0  0  0  0  0  0  0  0  0  0
   -1.5000    5.1962    0.0000 C   0  0  0  0  0  0  0  0  0  0  0  0
   -0.7500    6.4952    0.0000 C   0  0  0  0  0  0  0  0  0  0  0  0
   -1.5000    7.7942    0.0000 C   0  0  0  0  0  0  0  0  0  0  0  0
   -3.0000    7.7942    0.0000 C   0  0  0  0  0  0  0  0  0  0  0  0
   -3.7500    6.4952    0.0000 C   0  0  0  0  0  0  0  0  0  0  0  0
   -3.0000    5.1962    0.0000 C   0  0  0  0  0  0  0  0  0  0  0  0
    0.7500    1.2990    0.0000 C   0  0  0  0  0  0  0  0  0  0  0  0
  1  2  2  0
  2  3  1  0
  3  4  1  0
  4  5  1  0
  5  6  1  0
  6  7  1  0
  7  8  1  0
  8  9  1  0
  2 10  1  0
 10 11  1  0
 11 12  1  0
 12 13  2  0
 13 14  1  0
 14 15  2  0
 15 16  1  0
 16 17  1  0
 17 18  1  0
 18 19  1  0
 19 20  2  0
 20 21  1  0
 21 22  2  0
 22 23  1  0
 23 24  2  0
 16 25  2  0
 25 12  1  0
 24 19  1  0
M  END
>  <molecule_chembl_id>  (89) 
CHEMBL3356934

>  <canonical_smiles>  (89) 
O=C(CCCCCCS)NCc1cccc(OCc2ccccc2)c1

>  <pchembl_value_mean>  (89) 
4.85

>  <document_chembl_id>  (89) 
CHEMBL3352570

$$$$

     RDKit          2D

 16 18  0  0  0  0  0  0  0  0999 V2000
   -3.0000   -2.5981    0.0000 S   0  0  0  0  0  0  0  0  0  0  0  0
   -1.5000   -2.5981    0.0000 C   0  0  0  0  0  0  0  0  0  0  0  0
   -0.7500   -3.8971    0.0000 S   0  0  0  0  0  0  0  0  0  0  0  0
    0.7500   -3.8971    0.0000 C   0  0  0  0  0  0  0  0  0  0  0  0
    1.5000   -5.1962    0.0000 C   0  0  0  0  0  0  0  0  0  0  0  0
    3.0000   -5.1962    0.0000 C   0  0  0  0  0  0  0  0  0  0  0  0
    3.7500   -3.8971    0.0000 C   0  0  0  0  0  0  0  0  0  0  0  0
    3.0000   -2.5981    0.0000 C   0  0  0  0  0  0  0  0  0  0  0  0
    3.7500   -1.2990    0.0000 Cl  0  0  0  0  0  0  0  0  0  0  0  0
    1.5000   -2.5981    0.0000 C   0  0  0  0  0  0  0  0  0  0  0  0
    0.7500   -1.2990    0.0000 C   0  0  0  0  0  0  0  0  0  0  0  0
    1.5000    0.0000    0.0000 N   0  0  0  0  0  0  0  0  0  0  0  0
    0.7500    1.2990    0.0000 C   0  0  0  0  0  0  0  0  0  0  0  0
   -0.7500    1.2990    0.0000 C   0  0  0  0  0  0  0  0  0  0  0  0
   -1.5000    0.0000    0.0000 C   0  0  0  0  0  0  0  0  0  0  0  0
   -0.7500   -1.2990    0.0000 N   0  0  0  0  0  0  0  0  0  0  0  0
  1  2  2  0
  2  3  1  0
  3  4  1  0
  4  5  2  0
  5  6  1  0
  6  7  2  0
  7  8  1  0
  8  9  1  0
  8 10  2  0
 10 11  1  0
 11 12  2  0
 12 13  1  0
 13 14  1  0
 14 15  1  0
 15 16  1  0
 16  2  1  0
 10  4  1  0
 16 11  1  0
M  END
>  <molecule_chembl_id>  (90) 
CHEMBL4516558

>  <canonical_smiles>  (90) 
S=C1Sc2cccc(Cl)c2C2=NCCCN12

>  <pchembl_value_mean>  (90) 
4.85

>  <document_chembl_id>  (90) 
CHEMBL4406872

$$$$

     RDKit          2D

 38 41  0  0  0  0  0  0  0  0999 V2000
    4.7302   -3.7586    0.0000 C   0  0  0  0  0  0  0  0  0  0  0  0
    3.3037   -4.2221    0.0000 C   0  0  0  0  0  0  0  0  0  0  0  0
    3.9138   -5.5924    0.0000 C   0  0  0  0  0  0  0  0  0  0  0  0
    2.9918   -2.7549    0.0000 C   0  0  0  0  0  0  0  0  0  0  0  0
    3.9955   -1.6402    0.0000 O   0  0  0  0  0  0  0  0  0  0  0  0
    1.5000   -2.5981    0.0000 N   0  0  0  0  0  0  0  0  0  0  0  0
    0.7500   -1.2990    0.0000 C   0  0  0  0  0  0  0  0  0  0  0  0
    1.5000    0.0000    0.0000 C   0  0  0  0  0  0  0  0  0  0  0  0
    0.7500    1.2990    0.0000 C   0  0  0  0  0  0  0  0  0  0  0  0
   -0.7500    1.2990    0.0000 C   0  0  0  0  0  0  0  0  0  0  0  0
   -1.5000    2.5981    0.0000 C   0  0  0  0  0  0  0  0  0  0  0  0
   -2.2500    3.8971    0.0000 N   0  0  0  0  0  0  0  0  0  0  0  0
   -1.5000    0.0000    0.0000 C   0  0  0  0  0  0  0  0  0  0  0  0
   -3.0000    0.0000    0.0000 C   0  0  0  0  0  0  0  0  0  0  0  0
   -4.5000    0.0000    0.0000 F   0  0  0  0  0  0  0  0  0  0  0  0
   -3.0000   -1.5000    0.0000 F   0  0  0  0  0  0  0  0  0  0  0  0
   -3.0000    1.5000    0.0000 F   0  0  0  0  0  0  0  0  0  0  0  0
   -0.7500   -1.2990    0.0000 C   0  0  0  0  0  0  0  0  0  0  0  0
    0.8899   -3.9684    0.0000 C   0  0  0  0  0  0  0  0  0  0  0  0
   -0.5773   -4.2803    0.0000 S   0  0  0  0  0  0  0  0  0  0  0  0
    2.0046   -4.9721    0.0000 N   0  0  0  0  0  0  0  0  0  0  0  0
    1.8478   -6.4639    0.0000 C   0  0  0  0  0  0  0  0  0  0  0  0
    0.4775   -7.0740    0.0000 C   0  0  0  0  0  0  0  0  0  0  0  0
    0.3207   -8.5658    0.0000 C   0  0  0  0  0  0  0  0  0  0  0  0
    1.5342   -9.4474    0.0000 C   0  0  0  0  0  0  0  0  0  0  0  0
    1.3774  -10.9392    0.0000 C   0  0  0  0  0  0  0  0  0  0  0  0
    2.5910  -11.8209    0.0000 O   0  0  0  0  0  0  0  0  0  0  0  0
    0.0071  -11.5493    0.0000 N   0  0  0  0  0  0  0  0  0  0  0  0
   -0.1497  -13.0411    0.0000 C   0  0  0  0  0  0  0  0  0  0  0  0
   -1.5200  -13.6512    0.0000 C   0  0  0  0  0  0  0  0  0  0  0  0
   -1.6768  -15.1430    0.0000 C   0  0  0  0  0  0  0  0  0  0  0  0
   -0.4633  -16.0247    0.0000 C   0  0  0  0  0  0  0  0  0  0  0  0
    0.9071  -15.4146    0.0000 C   0  0  0  0  0  0  0  0  0  0  0  0
    1.0639  -13.9228    0.0000 C   0  0  0  0  0  0  0  0  0  0  0  0
    2.4342  -13.3127    0.0000 N   0  0  0  0  0  0  0  0  0  0  0  0
    2.9046   -8.8373    0.0000 C   0  0  0  0  0  0  0  0  0  0  0  0
    4.1181   -9.7190    0.0000 F   0  0  0  0  0  0  0  0  0  0  0  0
    3.0613   -7.3456    0.0000 C   0  0  0  0  0  0  0  0  0  0  0  0
  1  2  1  0
  2  3  1  0
  2  4  1  0
  4  5  2  0
  4  6  1  0
  6  7  1  0
  7  8  2  0
  8  9  1  0
  9 10  2  0
 10 11  1  0
 11 12  3  0
 10 13  1  0
 13 14  1  0
 14 15  1  0
 14 16  1  0
 14 17  1  0
 13 18  2  0
  6 19  1  0
 19 20  2  0
 19 21  1  0
 21 22  1  0
 22 23  2  0
 23 24  1  0
 24 25  2  0
 25 26  1  0
 26 27  2  0
 26 28  1  0
 28 29  1  0
 29 30  2  0
 30 31  1  0
 31 32  2  0
 32 33  1  0
 33 34  2  0
 34 35  1  0
 25 36  1  0
 36 37  1  0
 36 38  2  0
 21  2  1  0
 38 22  1  0
 18  7  1  0
 34 29  1  0
M  END
>  <molecule_chembl_id>  (91) 
CHEMBL3955013

>  <canonical_smiles>  (91) 
CC1(C)C(=O)N(c2ccc(C#N)c(C(F)(F)F)c2)C(=S)N1c1ccc(C(=O)Nc2ccccc2N)c(F)c1

>  <pchembl_value_mean>  (91) 
4.85

>  <document_chembl_id>  (91) 
CHEMBL3862016

$$$$

     RDKit          2D

 32 35  0  0  0  0  0  0  0  0999 V2000
   -3.7500   -6.4952    0.0000 C   0  0  0  0  0  0  0  0  0  0  0  0
   -3.0000   -5.1962    0.0000 C   0  0  0  0  0  0  0  0  0  0  0  0
   -1.5000   -5.1962    0.0000 C   0  0  0  0  0  0  0  0  0  0  0  0
   -0.7500   -6.4952    0.0000 N   0  0  0  0  0  0  0  0  0  0  0  0
   -1.5000   -7.7942    0.0000 C   0  0  0  0  0  0  0  0  0  0  0  0
   -3.0000   -7.7942    0.0000 N   0  0  0  0  0  0  0  0  0  0  0  0
   -3.7500   -9.0933    0.0000 C   0  0  0  0  0  0  0  0  0  0  0  0
   -3.0000  -10.3923    0.0000 N   0  0  0  0  0  0  0  0  0  0  0  0
   -1.5000  -10.3923    0.0000 C   0  0  0  0  0  0  0  0  0  0  0  0
   -0.4963  -11.5070    0.0000 N   0  0  0  0  0  0  0  0  0  0  0  0
    0.8740  -10.8969    0.0000 C   0  0  0  0  0  0  0  0  0  0  0  0
    0.7172   -9.4051    0.0000 N   0  0  0  0  0  0  0  0  0  0  0  0
   -0.7500   -9.0933    0.0000 C   0  0  0  0  0  0  0  0  0  0  0  0
   -0.7500   -3.8971    0.0000 C   0  0  0  0  0  0  0  0  0  0  0  0
    0.7500   -3.8971    0.0000 N   0  0  0  0  0  0  0  0  0  0  0  0
    1.5000   -2.5981    0.0000 C   0  0  0  0  0  0  0  0  0  0  0  0
    3.0000   -2.5981    0.0000 C   0  0  0  0  0  0  0  0  0  0  0  0
    3.7500   -3.8971    0.0000 C   0  0  0  0  0  0  0  0  0  0  0  0
    5.2500   -3.8971    0.0000 C   0  0  0  0  0  0  0  0  0  0  0  0
    6.0000   -5.1962    0.0000 C   0  0  0  0  0  0  0  0  0  0  0  0
    7.5000   -5.1962    0.0000 C   0  0  0  0  0  0  0  0  0  0  0  0
    8.2500   -6.4952    0.0000 C   0  0  0  0  0  0  0  0  0  0  0  0
    7.5000   -7.7942    0.0000 O   0  0  0  0  0  0  0  0  0  0  0  0
    9.7500   -6.4952    0.0000 N   0  0  0  0  0  0  0  0  0  0  0  0
   10.5000   -7.7942    0.0000 O   0  0  0  0  0  0  0  0  0  0  0  0
    0.7500   -1.2990    0.0000 C   0  0  0  0  0  0  0  0  0  0  0  0
    1.5000    0.0000    0.0000 C   0  0  0  0  0  0  0  0  0  0  0  0
    0.7500    1.2990    0.0000 C   0  0  0  0  0  0  0  0  0  0  0  0
   -0.7500    1.2990    0.0000 C   0  0  0  0  0  0  0  0  0  0  0  0
   -1.5000    0.0000    0.0000 C   0  0  0  0  0  0  0  0  0  0  0  0
   -0.7500   -1.2990    0.0000 C   0  0  0  0  0  0  0  0  0  0  0  0
   -1.5000   -2.5981    0.0000 N   0  0  0  0  0  0  0  0  0  0  0  0
  1  2  1  0
  2  3  1  0
  3  4  1  0
  4  5  1  0
  5  6  2  0
  6  7  1  0
  7  8  2  0
  8  9  1  0
  9 10  1  0
 10 11  1  0
 11 12  2  0
 12 13  1  0
  3 14  1  0
 14 15  2  0
 15 16  1  0
 16 17  1  0
 17 18  1  0
 18 19  1  0
 19 20  1  0
 20 21  1  0
 21 22  1  0
 22 23  2  0
 22 24  1  0
 24 25  1  0
 16 26  2  0
 26 27  1  0
 27 28  2  0
 28 29  1  0
 29 30  2  0
 30 31  1  0
 31 32  2  0
 13  5  1  0
 32 14  1  0
 13  9  2  0
 31 26  1  0
M  END
>  <molecule_chembl_id>  (92) 
CHEMBL4539040

>  <canonical_smiles>  (92) 
CCC(Nc1ncnc2[nH]cnc12)c1nc(CCCCCC(=O)NO)c2ccccc2n1

>  <pchembl_value_mean>  (92) 
4.85

>  <document_chembl_id>  (92) 
CHEMBL4402587

$$$$

     RDKit          2D

 32 35  0  0  0  0  0  0  0  0999 V2000
    6.0000   -0.0000    0.0000 C   0  0  0  0  0  0  0  0  0  0  0  0
    5.2500   -1.2990    0.0000 C   0  0  0  0  0  0  0  0  0  0  0  0
    3.7500   -1.2990    0.0000 O   0  0  0  0  0  0  0  0  0  0  0  0
    3.0000   -2.5981    0.0000 C   0  0  0  0  0  0  0  0  0  0  0  0
    3.7500   -3.8971    0.0000 C   0  0  0  0  0  0  0  0  0  0  0  0
    3.0000   -5.1962    0.0000 C   0  0  0  0  0  0  0  0  0  0  0  0
    1.5000   -5.1962    0.0000 C   0  0  0  0  0  0  0  0  0  0  0  0
    0.7500   -6.4952    0.0000 C   0  0  0  0  0  0  0  0  0  0  0  0
   -0.7500   -6.4952    0.0000 C   0  0  0  0  0  0  0  0  0  0  0  0
   -1.6317   -7.7087    0.0000 C   0  0  0  0  0  0  0  0  0  0  0  0
   -3.0583   -7.2452    0.0000 C   0  0  0  0  0  0  0  0  0  0  0  0
   -3.0583   -5.7452    0.0000 C   0  0  0  0  0  0  0  0  0  0  0  0
   -4.2718   -4.8635    0.0000 C   0  0  0  0  0  0  0  0  0  0  0  0
   -5.6421   -5.4736    0.0000 O   0  0  0  0  0  0  0  0  0  0  0  0
   -4.1150   -3.3717    0.0000 N   0  0  0  0  0  0  0  0  0  0  0  0
   -5.3285   -2.4901    0.0000 O   0  0  0  0  0  0  0  0  0  0  0  0
   -1.6317   -5.2817    0.0000 C   0  0  0  0  0  0  0  0  0  0  0  0
    0.7500   -3.8971    0.0000 C   0  0  0  0  0  0  0  0  0  0  0  0
    1.5000   -2.5981    0.0000 C   0  0  0  0  0  0  0  0  0  0  0  0
    0.7500   -1.2990    0.0000 C   0  0  0  0  0  0  0  0  0  0  0  0
    1.5000    0.0000    0.0000 N   0  0  0  0  0  0  0  0  0  0  0  0
    0.7500    1.2990    0.0000 C   0  0  0  0  0  0  0  0  0  0  0  0
    1.2135    2.7256    0.0000 C   0  0  0  0  0  0  0  0  0  0  0  0
    2.6401    3.1891    0.0000 C   0  0  0  0  0  0  0  0  0  0  0  0
    2.9520    4.6564    0.0000 C   0  0  0  0  0  0  0  0  0  0  0  0
    0.0000    3.6073    0.0000 N   0  0  0  0  0  0  0  0  0  0  0  0
   -1.2135    2.7256    0.0000 N   0  0  0  0  0  0  0  0  0  0  0  0
   -2.6401    3.1891    0.0000 C   0  0  0  0  0  0  0  0  0  0  0  0
   -0.7500    1.2990    0.0000 C   0  0  0  0  0  0  0  0  0  0  0  0
   -1.5000    0.0000    0.0000 C   0  0  0  0  0  0  0  0  0  0  0  0
   -3.0000    0.0000    0.0000 O   0  0  0  0  0  0  0  0  0  0  0  0
   -0.7500   -1.2990    0.0000 N   0  0  0  0  0  0  0  0  0  0  0  0
  1  2  1  0
  2  3  1  0
  3  4  1  0
  4  5  2  0
  5  6  1  0
  6  7  2  0
  7  8  1  0
  8  9  1  0
  9 10  1  0
 10 11  1  0
 11 12  1  0
 12 13  1  0
 13 14  2  0
 13 15  1  0
 15 16  1  0
 12 17  1  0
  7 18  1  0
 18 19  2  0
 19 20  1  0
 20 21  2  0
 21 22  1  0
 22 23  1  0
 23 24  1  0
 24 25  1  0
 23 26  2  0
 26 27  1  0
 27 28  1  0
 27 29  1  0
 29 30  1  0
 30 31  2  0
 30 32  1  0
 19  4  1  0
 32 20  1  0
 17  9  1  0
 29 22  2  0
M  END
>  <molecule_chembl_id>  (93) 
CHEMBL3944571

>  <canonical_smiles>  (93) 
CCOc1ccc(CC2CCC(C(=O)NO)C2)cc1-c1nc2c(CC)nn(C)c2c(=O)[nH]1

>  <pchembl_value_mean>  (93) 
4.86

>  <document_chembl_id>  (93) 
CHEMBL3860059

$$$$

     RDKit          2D

 22 24  0  0  0  0  0  0  0  0999 V2000
    3.0000  -10.3923    0.0000 O   0  0  0  0  0  0  0  0  0  0  0  0
    1.5000  -10.3923    0.0000 C   0  0  0  0  0  0  0  0  0  0  0  0
    0.7500   -9.0933    0.0000 C   0  0  0  0  0  0  0  0  0  0  0  0
    1.5000   -7.7942    0.0000 C   0  0  0  0  0  0  0  0  0  0  0  0
    0.7500   -6.4952    0.0000 C   0  0  0  0  0  0  0  0  0  0  0  0
   -0.7500   -6.4952    0.0000 C   0  0  0  0  0  0  0  0  0  0  0  0
   -1.5000   -5.1962    0.0000 C   0  0  0  0  0  0  0  0  0  0  0  0
   -0.7500   -3.8971    0.0000 C   0  0  0  0  0  0  0  0  0  0  0  0
    0.7500   -3.8971    0.0000 C   0  0  0  0  0  0  0  0  0  0  0  0
    1.5000   -5.1962    0.0000 C   0  0  0  0  0  0  0  0  0  0  0  0
    1.5000   -2.5981    0.0000 C   0  0  0  0  0  0  0  0  0  0  0  0
    3.0000   -2.5981    0.0000 O   0  0  0  0  0  0  0  0  0  0  0  0
    0.7500   -1.2990    0.0000 C   0  0  0  0  0  0  0  0  0  0  0  0
    1.5000    0.0000    0.0000 C   0  0  0  0  0  0  0  0  0  0  0  0
    0.7500    1.2990    0.0000 C   0  0  0  0  0  0  0  0  0  0  0  0
   -0.7500    1.2990    0.0000 C   0  0  0  0  0  0  0  0  0  0  0  0
   -1.5000    0.0000    0.0000 C   0  0  0  0  0  0  0  0  0  0  0  0
   -0.7500   -1.2990    0.0000 C   0  0  0  0  0  0  0  0  0  0  0  0
   -1.5000   -2.5981    0.0000 C   0  0  0  0  0  0  0  0  0  0  0  0
   -3.0000   -2.5981    0.0000 O   0  0  0  0  0  0  0  0  0  0  0  0
    0.7500  -11.6913    0.0000 N   0  0  0  0  0  0  0  0  0  0  0  0
    1.5000  -12.9904    0.0000 O   0  0  0  0  0  0  0  0  0  0  0  0
  1  2  2  0
  2  3  1  0
  3  4  2  3
  4  5  1  0
  5  6  2  0
  6  7  1  0
  7  8  2  0
  8  9  1  0
  9 10  2  0
  9 11  1  0
 11 12  2  0
 11 13  1  0
 13 14  2  0
 14 15  1  0
 15 16  2  0
 16 17  1  0
 17 18  2  0
 18 19  1  0
 19 20  2  0
  2 21  1  0
 21 22  1  0
 10  5  1  0
 18 13  1  0
 19  8  1  0
M  END
>  <molecule_chembl_id>  (94) 
CHEMBL4556817

>  <canonical_smiles>  (94) 
O=C(C=Cc1ccc2c(c1)C(=O)c1ccccc1C2=O)NO

>  <pchembl_value_mean>  (94) 
4.87

>  <document_chembl_id>  (94) 
CHEMBL4422624

$$$$

     RDKit          2D

 26 29  0  0  0  0  0  0  0  0999 V2000
   -3.0000   -7.7942    0.0000 O   0  0  0  0  0  0  0  0  0  0  0  0
   -1.5000   -7.7942    0.0000 C   0  0  0  0  0  0  0  0  0  0  0  0
   -0.7500   -6.4952    0.0000 C   0  0  0  0  0  0  0  0  0  0  0  0
   -1.5000   -5.1962    0.0000 C   0  0  0  0  0  0  0  0  0  0  0  0
   -0.7500   -3.8971    0.0000 N   0  0  0  0  0  0  0  0  0  0  0  0
    0.7500   -3.8971    0.0000 C   0  0  0  0  0  0  0  0  0  0  0  0
    1.5000   -2.5981    0.0000 C   0  0  0  0  0  0  0  0  0  0  0  0
    0.7500   -1.2990    0.0000 C   0  0  0  0  0  0  0  0  0  0  0  0
    1.5000    0.0000    0.0000 C   0  0  0  0  0  0  0  0  0  0  0  0
    0.7500    1.2990    0.0000 C   0  0  0  0  0  0  0  0  0  0  0  0
   -0.7500    1.2990    0.0000 C   0  0  0  0  0  0  0  0  0  0  0  0
   -1.5000    0.0000    0.0000 C   0  0  0  0  0  0  0  0  0  0  0  0
   -0.7500   -1.2990    0.0000 C   0  0  0  0  0  0  0  0  0  0  0  0
   -1.5000   -2.5981    0.0000 C   0  0  0  0  0  0  0  0  0  0  0  0
   -3.0000   -2.5981    0.0000 C   0  0  0  0  0  0  0  0  0  0  0  0
   -3.7500   -1.2990    0.0000 C   0  0  0  0  0  0  0  0  0  0  0  0
   -5.2500   -1.2990    0.0000 C   0  0  0  0  0  0  0  0  0  0  0  0
   -6.0000   -2.5981    0.0000 C   0  0  0  0  0  0  0  0  0  0  0  0
   -5.2500   -3.8971    0.0000 C   0  0  0  0  0  0  0  0  0  0  0  0
   -6.0000   -5.1962    0.0000 C   0  0  0  0  0  0  0  0  0  0  0  0
   -5.2500   -6.4952    0.0000 C   0  0  0  0  0  0  0  0  0  0  0  0
   -3.7500   -6.4952    0.0000 C   0  0  0  0  0  0  0  0  0  0  0  0
   -3.0000   -5.1962    0.0000 C   0  0  0  0  0  0  0  0  0  0  0  0
   -3.7500   -3.8971    0.0000 C   0  0  0  0  0  0  0  0  0  0  0  0
   -0.7500   -9.0933    0.0000 N   0  0  0  0  0  0  0  0  0  0  0  0
   -1.5000  -10.3923    0.0000 O   0  0  0  0  0  0  0  0  0  0  0  0
  1  2  2  0
  2  3  1  0
  3  4  1  0
  4  5  1  0
  5  6  1  0
  6  7  1  0
  7  8  1  0
  8  9  2  0
  9 10  1  0
 10 11  2  0
 11 12  1  0
 12 13  2  0
 13 14  1  0
 14 15  1  0
 15 16  2  0
 16 17  1  0
 17 18  2  0
 18 19  1  0
 19 20  2  0
 20 21  1  0
 21 22  2  0
 22 23  1  0
 23 24  2  0
  2 25  1  0
 25 26  1  0
 14  5  1  0
 24 15  1  0
 13  8  1  0
 24 19  1  0
M  END
>  <molecule_chembl_id>  (95) 
CHEMBL4206987

>  <canonical_smiles>  (95) 
O=C(CCN1CCc2ccccc2C1c1cccc2ccccc12)NO

>  <pchembl_value_mean>  (95) 
4.89

>  <document_chembl_id>  (95) 
CHEMBL4190328

$$$$

     RDKit          2D

 30 33  0  0  0  0  0  0  0  0999 V2000
    3.9955   -4.2382    0.0000 C   0  0  0  0  0  0  0  0  0  0  0  0
    2.9918   -5.3529    0.0000 N   0  0  0  0  0  0  0  0  0  0  0  0
    1.5000   -5.1962    0.0000 C   0  0  0  0  0  0  0  0  0  0  0  0
    0.7500   -3.8971    0.0000 S   0  0  0  0  0  0  0  0  0  0  0  0
    1.5000   -2.5981    0.0000 C   0  0  0  0  0  0  0  0  0  0  0  0
    0.7500   -1.2990    0.0000 C   0  0  0  0  0  0  0  0  0  0  0  0
    1.5000    0.0000    0.0000 C   0  0  0  0  0  0  0  0  0  0  0  0
    0.7500    1.2990    0.0000 C   0  0  0  0  0  0  0  0  0  0  0  0
   -0.7500    1.2990    0.0000 C   0  0  0  0  0  0  0  0  0  0  0  0
   -1.5000    2.5981    0.0000 C   0  0  0  0  0  0  0  0  0  0  0  0
   -3.0000    2.5981    0.0000 O   0  0  0  0  0  0  0  0  0  0  0  0
   -0.7500    3.8971    0.0000 N   0  0  0  0  0  0  0  0  0  0  0  0
   -1.5000    5.1962    0.0000 C   0  0  0  0  0  0  0  0  0  0  0  0
   -0.7500    6.4952    0.0000 C   0  0  0  0  0  0  0  0  0  0  0  0
   -1.5000    7.7942    0.0000 C   0  0  0  0  0  0  0  0  0  0  0  0
   -3.0000    7.7942    0.0000 C   0  0  0  0  0  0  0  0  0  0  0  0
   -3.7500    6.4952    0.0000 C   0  0  0  0  0  0  0  0  0  0  0  0
   -3.0000    5.1962    0.0000 C   0  0  0  0  0  0  0  0  0  0  0  0
   -3.7500    3.8971    0.0000 N   0  0  0  0  0  0  0  0  0  0  0  0
   -1.5000    0.0000    0.0000 C   0  0  0  0  0  0  0  0  0  0  0  0
   -0.7500   -1.2990    0.0000 C   0  0  0  0  0  0  0  0  0  0  0  0
    0.8899   -6.5665    0.0000 N   0  0  0  0  0  0  0  0  0  0  0  0
    2.0046   -7.5702    0.0000 N   0  0  0  0  0  0  0  0  0  0  0  0
    3.3037   -6.8202    0.0000 C   0  0  0  0  0  0  0  0  0  0  0  0
    4.6740   -7.4303    0.0000 C   0  0  0  0  0  0  0  0  0  0  0  0
    4.8308   -8.9221    0.0000 C   0  0  0  0  0  0  0  0  0  0  0  0
    6.2011   -9.5322    0.0000 C   0  0  0  0  0  0  0  0  0  0  0  0
    7.4146   -8.6505    0.0000 N   0  0  0  0  0  0  0  0  0  0  0  0
    7.2578   -7.1587    0.0000 C   0  0  0  0  0  0  0  0  0  0  0  0
    5.8875   -6.5486    0.0000 C   0  0  0  0  0  0  0  0  0  0  0  0
  1  2  1  0
  2  3  1  0
  3  4  1  0
  4  5  1  0
  5  6  1  0
  6  7  2  0
  7  8  1  0
  8  9  2  0
  9 10  1  0
 10 11  2  0
 10 12  1  0
 12 13  1  0
 13 14  2  0
 14 15  1  0
 15 16  2  0
 16 17  1  0
 17 18  2  0
 18 19  1  0
  9 20  1  0
 20 21  2  0
  3 22  2  0
 22 23  1  0
 23 24  2  0
 24 25  1  0
 25 26  2  0
 26 27  1  0
 27 28  2  0
 28 29  1  0
 29 30  2  0
 24  2  1  0
 30 25  1  0
 21  6  1  0
 18 13  1  0
M  END
>  <molecule_chembl_id>  (96) 
CHEMBL4857194

>  <canonical_smiles>  (96) 
Cn1c(SCc2ccc(C(=O)Nc3ccccc3N)cc2)nnc1-c1ccncc1

>  <pchembl_value_mean>  (96) 
4.89

>  <document_chembl_id>  (96) 
CHEMBL4823270

$$$$

     RDKit          2D

 22 24  0  0  0  0  0  0  0  0999 V2000
  -10.5000   -5.1962    0.0000 O   0  0  0  0  0  0  0  0  0  0  0  0
   -9.7500   -3.8971    0.0000 C   0  0  0  0  0  0  0  0  0  0  0  0
  -10.5000   -2.5981    0.0000 N   0  0  0  0  0  0  0  0  0  0  0  0
  -12.0000   -2.5981    0.0000 O   0  0  0  0  0  0  0  0  0  0  0  0
   -8.2500   -3.8971    0.0000 C   0  0  0  0  0  0  0  0  0  0  0  0
   -7.5000   -2.5981    0.0000 C   0  0  0  0  0  0  0  0  0  0  0  0
   -6.0000   -2.5981    0.0000 C   0  0  0  0  0  0  0  0  0  0  0  0
   -5.2500   -3.8971    0.0000 C   0  0  0  0  0  0  0  0  0  0  0  0
   -3.7500   -3.8971    0.0000 C   0  0  0  0  0  0  0  0  0  0  0  0
   -3.0000   -2.5981    0.0000 N   0  0  0  0  0  0  0  0  0  0  0  0
   -1.5000   -2.5981    0.0000 C   0  0  0  0  0  0  0  0  0  0  0  0
   -0.7500   -3.8971    0.0000 C   0  0  0  0  0  0  0  0  0  0  0  0
    0.7500   -3.8971    0.0000 C   0  0  0  0  0  0  0  0  0  0  0  0
    1.5000   -2.5981    0.0000 C   0  0  0  0  0  0  0  0  0  0  0  0
    0.7500   -1.2990    0.0000 C   0  0  0  0  0  0  0  0  0  0  0  0
    1.5000    0.0000    0.0000 C   0  0  0  0  0  0  0  0  0  0  0  0
    0.7500    1.2990    0.0000 C   0  0  0  0  0  0  0  0  0  0  0  0
   -0.7500    1.2990    0.0000 C   0  0  0  0  0  0  0  0  0  0  0  0
   -1.5000    0.0000    0.0000 N   0  0  0  0  0  0  0  0  0  0  0  0
   -0.7500   -1.2990    0.0000 C   0  0  0  0  0  0  0  0  0  0  0  0
   -6.0000   -5.1962    0.0000 C   0  0  0  0  0  0  0  0  0  0  0  0
   -7.5000   -5.1962    0.0000 C   0  0  0  0  0  0  0  0  0  0  0  0
  1  2  2  0
  2  3  1  0
  3  4  1  0
  2  5  1  0
  5  6  2  0
  6  7  1  0
  7  8  2  0
  8  9  1  0
  9 10  1  0
 10 11  1  0
 11 12  2  0
 12 13  1  0
 13 14  2  0
 14 15  1  0
 15 16  2  0
 16 17  1  0
 17 18  2  0
 18 19  1  0
 19 20  2  0
  8 21  1  0
 21 22  2  0
 22  5  1  0
 20 11  1  0
 20 15  1  0
M  END
>  <molecule_chembl_id>  (97) 
CHEMBL4104117

>  <canonical_smiles>  (97) 
O=C(NO)c1ccc(CNc2cccc3cccnc23)cc1

>  <pchembl_value_mean>  (97) 
4.9

>  <document_chembl_id>  (97) 
CHEMBL4024792

$$$$

     RDKit          2D

 32 35  0  0  0  0  0  0  0  0999 V2000
    3.7500    1.2990    0.0000 O   0  0  0  0  0  0  0  0  0  0  0  0
    3.0000    0.0000    0.0000 C   0  0  0  0  0  0  0  0  0  0  0  0
    3.7500   -1.2990    0.0000 N   0  0  0  0  0  0  0  0  0  0  0  0
    5.2500   -1.2990    0.0000 O   0  0  0  0  0  0  0  0  0  0  0  0
    1.5000    0.0000    0.0000 C   0  0  0  0  0  0  0  0  0  0  0  0
    0.7500   -1.2990    0.0000 C   0  0  0  0  0  0  0  0  0  0  0  0
   -0.7500   -1.2990    0.0000 C   0  0  0  0  0  0  0  0  0  0  0  0
   -1.5000    0.0000    0.0000 C   0  0  0  0  0  0  0  0  0  0  0  0
   -3.0000    0.0000    0.0000 C   0  0  0  0  0  0  0  0  0  0  0  0
   -3.7500    1.2990    0.0000 N   0  0  0  0  0  0  0  0  0  0  0  0
   -5.2418    1.4558    0.0000 C   0  0  0  0  0  0  0  0  0  0  0  0
   -6.2455    0.3411    0.0000 O   0  0  0  0  0  0  0  0  0  0  0  0
   -5.5537    2.9231    0.0000 C   0  0  0  0  0  0  0  0  0  0  0  0
   -6.9240    3.5332    0.0000 C   0  0  0  0  0  0  0  0  0  0  0  0
   -7.0808    5.0249    0.0000 C   0  0  0  0  0  0  0  0  0  0  0  0
   -5.8672    5.9066    0.0000 C   0  0  0  0  0  0  0  0  0  0  0  0
   -6.0240    7.3984    0.0000 C   0  0  0  0  0  0  0  0  0  0  0  0
   -7.3943    8.0085    0.0000 C   0  0  0  0  0  0  0  0  0  0  0  0
   -8.6079    7.1268    0.0000 C   0  0  0  0  0  0  0  0  0  0  0  0
   -8.4511    5.6350    0.0000 C   0  0  0  0  0  0  0  0  0  0  0  0
   -4.2546    3.6731    0.0000 N   0  0  0  0  0  0  0  0  0  0  0  0
   -4.0978    5.1648    0.0000 C   0  0  0  0  0  0  0  0  0  0  0  0
   -2.7275    5.7749    0.0000 C   0  0  0  0  0  0  0  0  0  0  0  0
   -1.5140    4.8933    0.0000 C   0  0  0  0  0  0  0  0  0  0  0  0
   -0.1437    5.5034    0.0000 C   0  0  0  0  0  0  0  0  0  0  0  0
    0.0131    6.9951    0.0000 C   0  0  0  0  0  0  0  0  0  0  0  0
   -1.2004    7.8768    0.0000 N   0  0  0  0  0  0  0  0  0  0  0  0
   -2.5707    7.2667    0.0000 C   0  0  0  0  0  0  0  0  0  0  0  0
   -3.1399    2.6694    0.0000 C   0  0  0  0  0  0  0  0  0  0  0  0
   -1.6727    2.9812    0.0000 O   0  0  0  0  0  0  0  0  0  0  0  0
   -0.7500    1.2990    0.0000 C   0  0  0  0  0  0  0  0  0  0  0  0
    0.7500    1.2990    0.0000 C   0  0  0  0  0  0  0  0  0  0  0  0
  1  2  2  0
  2  3  1  0
  3  4  1  0
  2  5  1  0
  5  6  2  0
  6  7  1  0
  7  8  2  0
  8  9  1  0
  9 10  1  0
 10 11  1  0
 11 12  2  0
 11 13  1  0
 13 14  1  0
 14 15  1  0
 15 16  2  0
 16 17  1  0
 17 18  2  0
 18 19  1  0
 19 20  2  0
 13 21  1  0
 21 22  1  0
 22 23  1  0
 23 24  2  0
 24 25  1  0
 25 26  2  0
 26 27  1  0
 27 28  2  0
 21 29  1  0
 29 30  2  0
  8 31  1  0
 31 32  2  0
 32  5  1  0
 29 10  1  0
 20 15  1  0
 28 23  1  0
M  END
>  <molecule_chembl_id>  (98) 
CHEMBL4866683

>  <canonical_smiles>  (98) 
O=C(NO)c1ccc(CN2C(=O)C(Cc3ccccc3)N(Cc3cccnc3)C2=O)cc1

>  <pchembl_value_mean>  (98) 
4.91

>  <document_chembl_id>  (98) 
CHEMBL4842326

$$$$

     RDKit          2D

 25 26  0  0  0  0  0  0  0  0999 V2000
    3.0000  -12.9904    0.0000 O   0  0  0  0  0  0  0  0  0  0  0  0
    1.5000  -12.9904    0.0000 C   0  0  0  0  0  0  0  0  0  0  0  0
    0.7500  -11.6913    0.0000 C   0  0  0  0  0  0  0  0  0  0  0  0
    1.5000  -10.3923    0.0000 C   0  0  0  0  0  0  0  0  0  0  0  0
    0.7500   -9.0933    0.0000 C   0  0  0  0  0  0  0  0  0  0  0  0
    1.5000   -7.7942    0.0000 C   0  0  0  0  0  0  0  0  0  0  0  0
    0.7500   -6.4952    0.0000 C   0  0  0  0  0  0  0  0  0  0  0  0
    1.5000   -5.1962    0.0000 C   0  0  0  0  0  0  0  0  0  0  0  0
    0.7500   -3.8971    0.0000 C   0  0  0  0  0  0  0  0  0  0  0  0
   -0.7500   -3.8971    0.0000 O   0  0  0  0  0  0  0  0  0  0  0  0
    1.5000   -2.5981    0.0000 N   0  0  0  0  0  0  0  0  0  0  0  0
    0.7500   -1.2990    0.0000 C   0  0  0  0  0  0  0  0  0  0  0  0
    1.5000    0.0000    0.0000 C   0  0  0  0  0  0  0  0  0  0  0  0
    0.7500    1.2990    0.0000 C   0  0  0  0  0  0  0  0  0  0  0  0
   -0.7500    1.2990    0.0000 C   0  0  0  0  0  0  0  0  0  0  0  0
   -1.5000    0.0000    0.0000 C   0  0  0  0  0  0  0  0  0  0  0  0
   -0.7500   -1.2990    0.0000 C   0  0  0  0  0  0  0  0  0  0  0  0
   -0.7500   -9.0933    0.0000 C   0  0  0  0  0  0  0  0  0  0  0  0
   -1.5000   -7.7942    0.0000 C   0  0  0  0  0  0  0  0  0  0  0  0
   -3.0000   -7.7942    0.0000 C   0  0  0  0  0  0  0  0  0  0  0  0
   -3.7500   -9.0933    0.0000 C   0  0  0  0  0  0  0  0  0  0  0  0
   -3.0000  -10.3923    0.0000 C   0  0  0  0  0  0  0  0  0  0  0  0
   -1.5000  -10.3923    0.0000 C   0  0  0  0  0  0  0  0  0  0  0  0
    0.7500  -14.2894    0.0000 N   0  0  0  0  0  0  0  0  0  0  0  0
    1.5000  -15.5885    0.0000 O   0  0  0  0  0  0  0  0  0  0  0  0
  1  2  2  0
  2  3  1  0
  3  4  1  0
  4  5  1  0
  5  6  1  0
  6  7  1  0
  7  8  1  0
  8  9  1  0
  9 10  2  0
  9 11  1  0
 11 12  1  0
 12 13  2  0
 13 14  1  0
 14 15  2  0
 15 16  1  0
 16 17  2  0
  5 18  1  0
 18 19  2  0
 19 20  1  0
 20 21  2  0
 21 22  1  0
 22 23  2  0
  2 24  1  0
 24 25  1  0
 17 12  1  0
 23 18  1  0
M  END
>  <molecule_chembl_id>  (99) 
CHEMBL4295105

>  <canonical_smiles>  (99) 
O=C(CCC(CCCC(=O)Nc1ccccc1)c1ccccc1)NO

>  <pchembl_value_mean>  (99) 
4.92

>  <document_chembl_id>  (99) 
CHEMBL4251567

$$$$

     RDKit          2D

  6  5  0  0  0  0  0  0  0  0999 V2000
    0.0000    0.0000    0.0000 C   0  0  0  0  0  0  0  0  0  0  0  0
    1.2990    0.7500    0.0000 C   0  0  0  0  0  0  0  0  0  0  0  0
    2.5981   -0.0000    0.0000 C   0  0  0  0  0  0  0  0  0  0  0  0
    3.8971    0.7500    0.0000 C   0  0  0  0  0  0  0  0  0  0  0  0
    3.8971    2.2500    0.0000 O   0  0  0  0  0  0  0  0  0  0  0  0
    5.1962   -0.0000    0.0000 O   0  0  0  0  0  0  0  0  0  0  0  0
  1  2  1  0
  2  3  1  0
  3  4  1  0
  4  5  2  0
  4  6  1  0
M  END
>  <molecule_chembl_id>  (100) 
CHEMBL14227

>  <canonical_smiles>  (100) 
CCCC(=O)O

>  <pchembl_value_mean>  (100) 
4.92

>  <document_chembl_id>  (100) 
CHEMBL1671826

$$$$

     RDKit          2D

 22 23  0  0  0  0  0  0  0  0999 V2000
    3.7500   -3.8971    0.0000 C   0  0  0  0  0  0  0  0  0  0  0  0
    3.0000   -2.5981    0.0000 C   0  0  0  0  0  0  0  0  0  0  0  0
    3.7500   -1.2990    0.0000 C   0  0  0  0  0  0  0  0  0  0  0  0
    1.5000   -2.5981    0.0000 C   0  0  0  0  0  0  0  0  0  0  0  0
    0.7500   -1.2990    0.0000 C   0  0  0  0  0  0  0  0  0  0  0  0
    1.5000    0.0000    0.0000 C   0  0  0  0  0  0  0  0  0  0  0  0
    0.7500    1.2990    0.0000 C   0  0  0  0  0  0  0  0  0  0  0  0
   -0.7500    1.2990    0.0000 C   0  0  0  0  0  0  0  0  0  0  0  0
   -1.5000    0.0000    0.0000 C   0  0  0  0  0  0  0  0  0  0  0  0
   -0.7500   -1.2990    0.0000 C   0  0  0  0  0  0  0  0  0  0  0  0
    0.7500   -3.8971    0.0000 C   0  0  0  0  0  0  0  0  0  0  0  0
   -0.7500   -3.8971    0.0000 C   0  0  0  0  0  0  0  0  0  0  0  0
   -1.5000   -5.1962    0.0000 C   0  0  0  0  0  0  0  0  0  0  0  0
   -0.7500   -6.4952    0.0000 C   0  0  0  0  0  0  0  0  0  0  0  0
   -1.5000   -7.7942    0.0000 C   0  0  0  0  0  0  0  0  0  0  0  0
   -3.0000   -7.7942    0.0000 C   0  0  0  0  0  0  0  0  0  0  0  0
   -3.7500   -9.0933    0.0000 C   0  0  0  0  0  0  0  0  0  0  0  0
   -3.0000  -10.3923    0.0000 O   0  0  0  0  0  0  0  0  0  0  0  0
   -5.2500   -9.0933    0.0000 N   0  0  0  0  0  0  0  0  0  0  0  0
   -6.0000  -10.3923    0.0000 O   0  0  0  0  0  0  0  0  0  0  0  0
    0.7500   -6.4952    0.0000 C   0  0  0  0  0  0  0  0  0  0  0  0
    1.5000   -5.1962    0.0000 C   0  0  0  0  0  0  0  0  0  0  0  0
  1  2  1  0
  2  3  1  0
  2  4  2  3
  4  5  1  0
  5  6  2  0
  6  7  1  0
  7  8  2  0
  8  9  1  0
  9 10  2  0
  4 11  1  0
 11 12  2  0
 12 13  1  0
 13 14  2  0
 14 15  1  0
 15 16  2  3
 16 17  1  0
 17 18  2  0
 17 19  1  0
 19 20  1  0
 14 21  1  0
 21 22  2  0
 10  5  1  0
 22 11  1  0
M  END
>  <molecule_chembl_id>  (101) 
CHEMBL3794127

>  <canonical_smiles>  (101) 
CC(C)=C(c1ccccc1)c1ccc(C=CC(=O)NO)cc1

>  <pchembl_value_mean>  (101) 
4.93

>  <document_chembl_id>  (101) 
CHEMBL3792283

$$$$

     RDKit          2D

 24 25  0  0  0  0  0  0  0  0999 V2000
   -2.5081   -6.0187    0.0000 C   0  0  0  0  0  0  0  0  0  0  0  0
   -1.0409   -5.7068    0.0000 C   0  0  0  0  0  0  0  0  0  0  0  0
   -0.5773   -4.2803    0.0000 C   0  0  0  0  0  0  0  0  0  0  0  0
    0.8899   -3.9684    0.0000 N   0  0  0  0  0  0  0  0  0  0  0  0
    2.0046   -4.9721    0.0000 C   0  0  0  0  0  0  0  0  0  0  0  0
    1.8478   -6.4639    0.0000 S   0  0  0  0  0  0  0  0  0  0  0  0
    3.0613   -7.3456    0.0000 C   0  0  0  0  0  0  0  0  0  0  0  0
    2.9046   -8.8373    0.0000 C   0  0  0  0  0  0  0  0  0  0  0  0
    4.1181   -9.7190    0.0000 C   0  0  0  0  0  0  0  0  0  0  0  0
    3.9613  -11.2108    0.0000 C   0  0  0  0  0  0  0  0  0  0  0  0
    5.1748  -12.0925    0.0000 C   0  0  0  0  0  0  0  0  0  0  0  0
    5.0180  -13.5843    0.0000 C   0  0  0  0  0  0  0  0  0  0  0  0
    3.6477  -14.1944    0.0000 O   0  0  0  0  0  0  0  0  0  0  0  0
    6.2315  -14.4659    0.0000 N   0  0  0  0  0  0  0  0  0  0  0  0
    6.0748  -15.9577    0.0000 O   0  0  0  0  0  0  0  0  0  0  0  0
    3.3037   -4.2221    0.0000 N   0  0  0  0  0  0  0  0  0  0  0  0
    2.9918   -2.7549    0.0000 N   0  0  0  0  0  0  0  0  0  0  0  0
    1.5000   -2.5981    0.0000 C   0  0  0  0  0  0  0  0  0  0  0  0
    0.7500   -1.2990    0.0000 C   0  0  0  0  0  0  0  0  0  0  0  0
    1.5000    0.0000    0.0000 C   0  0  0  0  0  0  0  0  0  0  0  0
    0.7500    1.2990    0.0000 C   0  0  0  0  0  0  0  0  0  0  0  0
   -0.7500    1.2990    0.0000 N   0  0  0  0  0  0  0  0  0  0  0  0
   -1.5000    0.0000    0.0000 C   0  0  0  0  0  0  0  0  0  0  0  0
   -0.7500   -1.2990    0.0000 C   0  0  0  0  0  0  0  0  0  0  0  0
  1  2  2  0
  2  3  1  0
  3  4  1  0
  4  5  1  0
  5  6  1  0
  6  7  1  0
  7  8  1  0
  8  9  1  0
  9 10  1  0
 10 11  1  0
 11 12  1  0
 12 13  2  0
 12 14  1  0
 14 15  1  0
  5 16  2  0
 16 17  1  0
 17 18  2  0
 18 19  1  0
 19 20  2  0
 20 21  1  0
 21 22  2  0
 22 23  1  0
 23 24  2  0
 18  4  1  0
 24 19  1  0
M  END
>  <molecule_chembl_id>  (102) 
CHEMBL4860240

>  <canonical_smiles>  (102) 
C=CCn1c(SCCCCCC(=O)NO)nnc1-c1ccncc1

>  <pchembl_value_mean>  (102) 
4.93

>  <document_chembl_id>  (102) 
CHEMBL4823270

$$$$

     RDKit          2D

 35 38  0  0  0  0  0  0  0  0999 V2000
   -4.3786   -5.1199    0.0000 C   0  0  0  0  0  0  0  0  0  0  0  0
   -2.9520   -4.6564    0.0000 C   0  0  0  0  0  0  0  0  0  0  0  0
   -2.6401   -3.1891    0.0000 C   0  0  0  0  0  0  0  0  0  0  0  0
   -1.2135   -2.7256    0.0000 C   0  0  0  0  0  0  0  0  0  0  0  0
   -0.0000   -3.6073    0.0000 N   0  0  0  0  0  0  0  0  0  0  0  0
    1.2135   -2.7256    0.0000 N   0  0  0  0  0  0  0  0  0  0  0  0
    2.6401   -3.1891    0.0000 C   0  0  0  0  0  0  0  0  0  0  0  0
    0.7500   -1.2990    0.0000 C   0  0  0  0  0  0  0  0  0  0  0  0
    1.5000    0.0000    0.0000 C   0  0  0  0  0  0  0  0  0  0  0  0
    3.0000    0.0000    0.0000 O   0  0  0  0  0  0  0  0  0  0  0  0
    0.7500    1.2990    0.0000 N   0  0  0  0  0  0  0  0  0  0  0  0
   -0.7500    1.2990    0.0000 C   0  0  0  0  0  0  0  0  0  0  0  0
   -1.5000    2.5981    0.0000 C   0  0  0  0  0  0  0  0  0  0  0  0
   -0.7500    3.8971    0.0000 C   0  0  0  0  0  0  0  0  0  0  0  0
   -1.5000    5.1962    0.0000 C   0  0  0  0  0  0  0  0  0  0  0  0
   -0.7500    6.4952    0.0000 O   0  0  0  0  0  0  0  0  0  0  0  0
    0.7500    6.4952    0.0000 C   0  0  0  0  0  0  0  0  0  0  0  0
    1.5000    7.7942    0.0000 C   0  0  0  0  0  0  0  0  0  0  0  0
    3.0000    7.7942    0.0000 C   0  0  0  0  0  0  0  0  0  0  0  0
    3.7500    9.0933    0.0000 C   0  0  0  0  0  0  0  0  0  0  0  0
    3.0000   10.3923    0.0000 C   0  0  0  0  0  0  0  0  0  0  0  0
    3.7500   11.6913    0.0000 C   0  0  0  0  0  0  0  0  0  0  0  0
    3.0000   12.9904    0.0000 O   0  0  0  0  0  0  0  0  0  0  0  0
    5.2500   11.6913    0.0000 N   0  0  0  0  0  0  0  0  0  0  0  0
    6.0000   12.9904    0.0000 O   0  0  0  0  0  0  0  0  0  0  0  0
    1.5000   10.3923    0.0000 C   0  0  0  0  0  0  0  0  0  0  0  0
    0.7500    9.0933    0.0000 C   0  0  0  0  0  0  0  0  0  0  0  0
   -3.0000    5.1962    0.0000 C   0  0  0  0  0  0  0  0  0  0  0  0
   -3.7500    3.8971    0.0000 C   0  0  0  0  0  0  0  0  0  0  0  0
   -3.0000    2.5981    0.0000 C   0  0  0  0  0  0  0  0  0  0  0  0
   -3.7500    1.2990    0.0000 O   0  0  0  0  0  0  0  0  0  0  0  0
   -5.2500    1.2990    0.0000 C   0  0  0  0  0  0  0  0  0  0  0  0
   -6.0000    0.0000    0.0000 C   0  0  0  0  0  0  0  0  0  0  0  0
   -1.5000    0.0000    0.0000 N   0  0  0  0  0  0  0  0  0  0  0  0
   -0.7500   -1.2990    0.0000 C   0  0  0  0  0  0  0  0  0  0  0  0
  1  2  1  0
  2  3  1  0
  3  4  1  0
  4  5  2  0
  5  6  1  0
  6  7  1  0
  6  8  1  0
  8  9  1  0
  9 10  2  0
  9 11  1  0
 11 12  1  0
 12 13  1  0
 13 14  2  0
 14 15  1  0
 15 16  1  0
 16 17  1  0
 17 18  1  0
 18 19  2  0
 19 20  1  0
 20 21  2  0
 21 22  1  0
 22 23  2  0
 22 24  1  0
 24 25  1  0
 21 26  1  0
 26 27  2  0
 15 28  2  0
 28 29  1  0
 29 30  2  0
 30 31  1  0
 31 32  1  0
 32 33  1  0
 12 34  2  0
 34 35  1  0
 35  4  1  0
 35  8  2  0
 30 13  1  0
 27 18  1  0
M  END
>  <molecule_chembl_id>  (103) 
CHEMBL4207836

>  <canonical_smiles>  (103) 
CCCc1nn(C)c2c(=O)[nH]c(-c3cc(OCc4ccc(C(=O)NO)cc4)ccc3OCC)nc12

>  <pchembl_value_mean>  (103) 
4.94

>  <document_chembl_id>  (103) 
CHEMBL4196089

$$$$

     RDKit          2D

 44 48  0  0  0  0  0  0  0  0999 V2000
    9.1084    4.1320    0.0000 O   0  0  0  0  0  0  0  0  0  0  0  0
    9.0299    5.6300    0.0000 C   0  0  0  0  0  0  0  0  0  0  0  0
   10.2879    6.4469    0.0000 O   0  0  0  0  0  0  0  0  0  0  0  0
    7.6934    6.3110    0.0000 C   0  0  0  0  0  0  0  0  0  0  0  0
    6.4354    5.4940    0.0000 C   0  0  0  0  0  0  0  0  0  0  0  0
    5.0989    6.1750    0.0000 C   0  0  0  0  0  0  0  0  0  0  0  0
    3.8409    5.3580    0.0000 C   0  0  0  0  0  0  0  0  0  0  0  0
    2.5043    6.0390    0.0000 C   0  0  0  0  0  0  0  0  0  0  0  0
    1.2463    5.2220    0.0000 C   0  0  0  0  0  0  0  0  0  0  0  0
    1.7099    3.7955    0.0000 N   0  0  0  0  0  0  0  0  0  0  0  0
    1.3980    2.3282    0.0000 C   0  0  0  0  0  0  0  0  0  0  0  0
    2.7345    1.6473    0.0000 O   0  0  0  0  0  0  0  0  0  0  0  0
    0.3943    1.2135    0.0000 C   0  0  0  0  0  0  0  0  0  0  0  0
    1.2760    0.0000    0.0000 C   0  0  0  0  0  0  0  0  0  0  0  0
    0.3943   -1.2135    0.0000 C   0  0  0  0  0  0  0  0  0  0  0  0
   -1.0323   -0.7500    0.0000 C   0  0  0  0  0  0  0  0  0  0  0  0
   -1.0323    0.7500    0.0000 N   0  0  0  0  0  0  0  0  0  0  0  0
   -2.4995    1.0619    0.0000 C   0  0  0  0  0  0  0  0  0  0  0  0
   -3.1805   -0.2746    0.0000 O   0  0  0  0  0  0  0  0  0  0  0  0
   -3.6142    2.0656    0.0000 C   0  0  0  0  0  0  0  0  0  0  0  0
   -4.8722    1.2486    0.0000 C   0  0  0  0  0  0  0  0  0  0  0  0
   -6.2087    1.9296    0.0000 C   0  0  0  0  0  0  0  0  0  0  0  0
   -6.2872    3.4275    0.0000 C   0  0  0  0  0  0  0  0  0  0  0  0
   -7.6238    4.1085    0.0000 C   0  0  0  0  0  0  0  0  0  0  0  0
   -8.8818    3.2916    0.0000 C   0  0  0  0  0  0  0  0  0  0  0  0
   -8.8033    1.7936    0.0000 C   0  0  0  0  0  0  0  0  0  0  0  0
   -7.4667    1.1126    0.0000 C   0  0  0  0  0  0  0  0  0  0  0  0
   -4.0778    3.4921    0.0000 N   0  0  0  0  0  0  0  0  0  0  0  0
   -3.7659    4.9594    0.0000 C   0  0  0  0  0  0  0  0  0  0  0  0
   -5.1024    5.6404    0.0000 O   0  0  0  0  0  0  0  0  0  0  0  0
   -2.7622    6.0741    0.0000 C   0  0  0  0  0  0  0  0  0  0  0  0
   -3.5791    7.3321    0.0000 C   0  0  0  0  0  0  0  0  0  0  0  0
   -2.8982    8.6686    0.0000 C   0  0  0  0  0  0  0  0  0  0  0  0
   -1.4166    8.9033    0.0000 C   0  0  0  0  0  0  0  0  0  0  0  0
   -1.1820   10.3848    0.0000 N   0  0  0  0  0  0  0  0  0  0  0  0
   -2.5185   11.0658    0.0000 C   0  0  0  0  0  0  0  0  0  0  0  0
   -2.9067   12.5147    0.0000 C   0  0  0  0  0  0  0  0  0  0  0  0
   -4.3556   12.9029    0.0000 C   0  0  0  0  0  0  0  0  0  0  0  0
   -5.4163   11.8422    0.0000 C   0  0  0  0  0  0  0  0  0  0  0  0
   -5.0280   10.3933    0.0000 C   0  0  0  0  0  0  0  0  0  0  0  0
   -3.5791   10.0051    0.0000 C   0  0  0  0  0  0  0  0  0  0  0  0
   -1.3356    6.5376    0.0000 N   0  0  0  0  0  0  0  0  0  0  0  0
    0.1316    6.2257    0.0000 C   0  0  0  0  0  0  0  0  0  0  0  0
    0.8126    7.5623    0.0000 O   0  0  0  0  0  0  0  0  0  0  0  0
  1  2  2  0
  2  3  1  0
  2  4  1  0
  4  5  1  0
  5  6  1  0
  6  7  2  3
  7  8  1  0
  8  9  1  0
  9 10  1  0
 10 11  1  0
 11 12  2  0
 11 13  1  0
 13 14  1  0
 14 15  1  0
 15 16  1  0
 16 17  1  0
 17 18  1  0
 18 19  2  0
 18 20  1  0
 20 21  1  0
 21 22  1  0
 22 23  2  0
 23 24  1  0
 24 25  2  0
 25 26  1  0
 26 27  2  0
 20 28  1  0
 28 29  1  0
 29 30  2  0
 29 31  1  0
 31 32  1  0
 32 33  1  0
 33 34  2  0
 34 35  1  0
 35 36  1  0
 36 37  2  0
 37 38  1  0
 38 39  2  0
 39 40  1  0
 40 41  2  0
 31 42  1  0
 42 43  1  0
 43 44  2  0
 43  9  1  0
 17 13  1  0
 27 22  1  0
 41 33  1  0
 41 36  1  0
M  END
>  <molecule_chembl_id>  (104) 
CHEMBL1096982

>  <canonical_smiles>  (104) 
O=C(O)CCC=CCC1NC(=O)C2CCCN2C(=O)C(Cc2ccccc2)NC(=O)C(Cc2c[nH]c3ccccc23)NC1=O

>  <pchembl_value_mean>  (104) 
4.94

>  <document_chembl_id>  (104) 
CHEMBL1158553

$$$$

     RDKit          2D

 26 28  0  0  0  0  0  0  0  0999 V2000
    6.4664   -3.4354    0.0000 C   0  0  0  0  0  0  0  0  0  0  0  0
    5.4627   -4.5501    0.0000 C   0  0  0  0  0  0  0  0  0  0  0  0
    3.9955   -4.2382    0.0000 C   0  0  0  0  0  0  0  0  0  0  0  0
    2.9918   -5.3529    0.0000 N   0  0  0  0  0  0  0  0  0  0  0  0
    1.5000   -5.1962    0.0000 C   0  0  0  0  0  0  0  0  0  0  0  0
    0.7500   -3.8971    0.0000 S   0  0  0  0  0  0  0  0  0  0  0  0
    1.5000   -2.5981    0.0000 C   0  0  0  0  0  0  0  0  0  0  0  0
    0.7500   -1.2990    0.0000 C   0  0  0  0  0  0  0  0  0  0  0  0
    1.5000    0.0000    0.0000 C   0  0  0  0  0  0  0  0  0  0  0  0
    0.7500    1.2990    0.0000 C   0  0  0  0  0  0  0  0  0  0  0  0
   -0.7500    1.2990    0.0000 C   0  0  0  0  0  0  0  0  0  0  0  0
   -1.5000    2.5981    0.0000 C   0  0  0  0  0  0  0  0  0  0  0  0
   -3.0000    2.5981    0.0000 O   0  0  0  0  0  0  0  0  0  0  0  0
   -0.7500    3.8971    0.0000 N   0  0  0  0  0  0  0  0  0  0  0  0
   -1.5000    5.1962    0.0000 O   0  0  0  0  0  0  0  0  0  0  0  0
   -1.5000    0.0000    0.0000 C   0  0  0  0  0  0  0  0  0  0  0  0
   -0.7500   -1.2990    0.0000 C   0  0  0  0  0  0  0  0  0  0  0  0
    0.8899   -6.5665    0.0000 N   0  0  0  0  0  0  0  0  0  0  0  0
    2.0046   -7.5702    0.0000 N   0  0  0  0  0  0  0  0  0  0  0  0
    3.3037   -6.8202    0.0000 C   0  0  0  0  0  0  0  0  0  0  0  0
    4.6740   -7.4303    0.0000 C   0  0  0  0  0  0  0  0  0  0  0  0
    4.8308   -8.9221    0.0000 C   0  0  0  0  0  0  0  0  0  0  0  0
    6.2011   -9.5322    0.0000 C   0  0  0  0  0  0  0  0  0  0  0  0
    7.4146   -8.6505    0.0000 N   0  0  0  0  0  0  0  0  0  0  0  0
    7.2578   -7.1587    0.0000 C   0  0  0  0  0  0  0  0  0  0  0  0
    5.8875   -6.5486    0.0000 C   0  0  0  0  0  0  0  0  0  0  0  0
  1  2  2  0
  2  3  1  0
  3  4  1  0
  4  5  1  0
  5  6  1  0
  6  7  1  0
  7  8  1  0
  8  9  2  0
  9 10  1  0
 10 11  2  0
 11 12  1  0
 12 13  2  0
 12 14  1  0
 14 15  1  0
 11 16  1  0
 16 17  2  0
  5 18  2  0
 18 19  1  0
 19 20  2  0
 20 21  1  0
 21 22  2  0
 22 23  1  0
 23 24  2  0
 24 25  1  0
 25 26  2  0
 20  4  1  0
 26 21  1  0
 17  8  1  0
M  END
>  <molecule_chembl_id>  (105) 
CHEMBL4869232

>  <canonical_smiles>  (105) 
C=CCn1c(SCc2ccc(C(=O)NO)cc2)nnc1-c1ccncc1

>  <pchembl_value_mean>  (105) 
4.95

>  <document_chembl_id>  (105) 
CHEMBL4823270

$$$$

     RDKit          2D

 22 23  0  0  0  0  0  0  0  0999 V2000
    3.7500    1.2990    0.0000 O   0  0  0  0  0  0  0  0  0  0  0  0
    3.0000    0.0000    0.0000 C   0  0  0  0  0  0  0  0  0  0  0  0
    3.7500   -1.2990    0.0000 N   0  0  0  0  0  0  0  0  0  0  0  0
    5.2500   -1.2990    0.0000 O   0  0  0  0  0  0  0  0  0  0  0  0
    1.5000    0.0000    0.0000 C   0  0  0  0  0  0  0  0  0  0  0  0
    0.7500   -1.2990    0.0000 C   0  0  0  0  0  0  0  0  0  0  0  0
   -0.7500   -1.2990    0.0000 C   0  0  0  0  0  0  0  0  0  0  0  0
   -1.5000    0.0000    0.0000 C   0  0  0  0  0  0  0  0  0  0  0  0
   -0.7500    1.2990    0.0000 C   0  0  0  0  0  0  0  0  0  0  0  0
   -1.5000    2.5981    0.0000 S   0  0  0  0  0  0  0  0  0  0  0  0
   -0.2010    3.3481    0.0000 O   0  0  0  0  0  0  0  0  0  0  0  0
   -2.7990    1.8481    0.0000 O   0  0  0  0  0  0  0  0  0  0  0  0
   -2.2500    3.8971    0.0000 N   0  0  0  0  0  0  0  0  0  0  0  0
   -3.7500    3.8971    0.0000 C   0  0  0  0  0  0  0  0  0  0  0  0
   -4.5000    5.1962    0.0000 C   0  0  0  0  0  0  0  0  0  0  0  0
   -6.0000    5.1962    0.0000 C   0  0  0  0  0  0  0  0  0  0  0  0
   -6.7500    6.4952    0.0000 C   0  0  0  0  0  0  0  0  0  0  0  0
   -8.2500    6.4952    0.0000 C   0  0  0  0  0  0  0  0  0  0  0  0
   -9.0000    5.1962    0.0000 C   0  0  0  0  0  0  0  0  0  0  0  0
   -8.2500    3.8971    0.0000 C   0  0  0  0  0  0  0  0  0  0  0  0
   -6.7500    3.8971    0.0000 C   0  0  0  0  0  0  0  0  0  0  0  0
    0.7500    1.2990    0.0000 C   0  0  0  0  0  0  0  0  0  0  0  0
  1  2  2  0
  2  3  1  0
  3  4  1  0
  2  5  1  0
  5  6  2  0
  6  7  1  0
  7  8  2  0
  8  9  1  0
  9 10  1  0
 10 11  2  0
 10 12  2  0
 10 13  1  0
 13 14  1  0
 14 15  1  0
 15 16  1  0
 16 17  2  0
 17 18  1  0
 18 19  2  0
 19 20  1  0
 20 21  2  0
  9 22  2  0
 22  5  1  0
 21 16  1  0
M  END
>  <molecule_chembl_id>  (106) 
CHEMBL4218377

>  <canonical_smiles>  (106) 
O=C(NO)c1cccc(S(=O)(=O)NCCc2ccccc2)c1

>  <pchembl_value_mean>  (106) 
4.95

>  <document_chembl_id>  (106) 
CHEMBL4196083

$$$$

     RDKit          2D

 27 28  0  0  0  0  0  0  0  0999 V2000
    6.0000    0.0000    0.0000 O   0  0  0  0  0  0  0  0  0  0  0  0
    5.2500   -1.2990    0.0000 C   0  0  0  0  0  0  0  0  0  0  0  0
    3.7500   -1.2990    0.0000 C   0  0  0  0  0  0  0  0  0  0  0  0
    3.0000    0.0000    0.0000 C   0  0  0  0  0  0  0  0  0  0  0  0
    1.5000    0.0000    0.0000 C   0  0  0  0  0  0  0  0  0  0  0  0
    0.7500   -1.2990    0.0000 C   0  0  0  0  0  0  0  0  0  0  0  0
   -0.7500   -1.2990    0.0000 C   0  0  0  0  0  0  0  0  0  0  0  0
   -1.5000    0.0000    0.0000 C   0  0  0  0  0  0  0  0  0  0  0  0
   -3.0000    0.0000    0.0000 C   0  0  0  0  0  0  0  0  0  0  0  0
   -3.7500    1.2990    0.0000 N   0  0  0  0  0  0  0  0  0  0  0  0
   -5.2500    1.2990    0.0000 O   0  0  0  0  0  0  0  0  0  0  0  0
   -6.0000    2.5981    0.0000 C   0  0  0  0  0  0  0  0  0  0  0  0
   -7.5000    2.5981    0.0000 C   0  0  0  0  0  0  0  0  0  0  0  0
   -8.2500    3.8971    0.0000 C   0  0  0  0  0  0  0  0  0  0  0  0
   -7.5000    5.1962    0.0000 F   0  0  0  0  0  0  0  0  0  0  0  0
   -9.7500    3.8971    0.0000 C   0  0  0  0  0  0  0  0  0  0  0  0
  -10.5000    5.1962    0.0000 F   0  0  0  0  0  0  0  0  0  0  0  0
  -10.5000    2.5981    0.0000 C   0  0  0  0  0  0  0  0  0  0  0  0
  -12.0000    2.5981    0.0000 F   0  0  0  0  0  0  0  0  0  0  0  0
   -9.7500    1.2990    0.0000 C   0  0  0  0  0  0  0  0  0  0  0  0
  -10.5000    0.0000    0.0000 F   0  0  0  0  0  0  0  0  0  0  0  0
   -8.2500    1.2990    0.0000 C   0  0  0  0  0  0  0  0  0  0  0  0
   -7.5000    0.0000    0.0000 F   0  0  0  0  0  0  0  0  0  0  0  0
   -0.7500    1.2990    0.0000 C   0  0  0  0  0  0  0  0  0  0  0  0
    0.7500    1.2990    0.0000 C   0  0  0  0  0  0  0  0  0  0  0  0
    6.0000   -2.5981    0.0000 N   0  0  0  0  0  0  0  0  0  0  0  0
    7.5000   -2.5981    0.0000 O   0  0  0  0  0  0  0  0  0  0  0  0
  1  2  2  0
  2  3  1  0
  3  4  2  3
  4  5  1  0
  5  6  2  0
  6  7  1  0
  7  8  2  0
  8  9  1  0
  9 10  2  3
 10 11  1  0
 11 12  1  0
 12 13  1  0
 13 14  2  0
 14 15  1  0
 14 16  1  0
 16 17  1  0
 16 18  2  0
 18 19  1  0
 18 20  1  0
 20 21  1  0
 20 22  2  0
 22 23  1  0
  8 24  1  0
 24 25  2  0
  2 26  1  0
 26 27  1  0
 25  5  1  0
 22 13  1  0
M  END
>  <molecule_chembl_id>  (107) 
CHEMBL471041

>  <canonical_smiles>  (107) 
O=C(C=Cc1ccc(C=NOCc2c(F)c(F)c(F)c(F)c2F)cc1)NO

>  <pchembl_value_mean>  (107) 
4.96

>  <document_chembl_id>  (107) 
CHEMBL1153969

$$$$

     RDKit          2D

 20 21  0  0  0  0  0  0  0  0999 V2000
    3.7500    1.2990    0.0000 O   0  0  0  0  0  0  0  0  0  0  0  0
    3.0000    0.0000    0.0000 C   0  0  0  0  0  0  0  0  0  0  0  0
    3.7500   -1.2990    0.0000 N   0  0  0  0  0  0  0  0  0  0  0  0
    5.2500   -1.2990    0.0000 O   0  0  0  0  0  0  0  0  0  0  0  0
    1.5000    0.0000    0.0000 C   0  0  0  0  0  0  0  0  0  0  0  0
    0.7500   -1.2990    0.0000 C   0  0  0  0  0  0  0  0  0  0  0  0
   -0.7500   -1.2990    0.0000 C   0  0  0  0  0  0  0  0  0  0  0  0
   -1.5000    0.0000    0.0000 C   0  0  0  0  0  0  0  0  0  0  0  0
   -0.7500    1.2990    0.0000 C   0  0  0  0  0  0  0  0  0  0  0  0
   -1.5000    2.5981    0.0000 C   0  0  0  0  0  0  0  0  0  0  0  0
   -3.0000    2.5981    0.0000 O   0  0  0  0  0  0  0  0  0  0  0  0
   -0.7500    3.8971    0.0000 N   0  0  0  0  0  0  0  0  0  0  0  0
   -1.5000    5.1962    0.0000 C   0  0  0  0  0  0  0  0  0  0  0  0
   -0.7500    6.4952    0.0000 C   0  0  0  0  0  0  0  0  0  0  0  0
    0.7500    6.4952    0.0000 C   0  0  0  0  0  0  0  0  0  0  0  0
    1.5000    7.7942    0.0000 C   0  0  0  0  0  0  0  0  0  0  0  0
    0.7500    9.0933    0.0000 C   0  0  0  0  0  0  0  0  0  0  0  0
   -0.7500    9.0933    0.0000 C   0  0  0  0  0  0  0  0  0  0  0  0
   -1.5000    7.7942    0.0000 C   0  0  0  0  0  0  0  0  0  0  0  0
    0.7500    1.2990    0.0000 C   0  0  0  0  0  0  0  0  0  0  0  0
  1  2  2  0
  2  3  1  0
  3  4  1  0
  2  5  1  0
  5  6  2  0
  6  7  1  0
  7  8  2  0
  8  9  1  0
  9 10  1  0
 10 11  2  0
 10 12  1  0
 12 13  1  0
 13 14  1  0
 14 15  2  0
 15 16  1  0
 16 17  2  0
 17 18  1  0
 18 19  2  0
  9 20  2  0
 20  5  1  0
 19 14  1  0
M  END
>  <molecule_chembl_id>  (108) 
CHEMBL2381519

>  <canonical_smiles>  (108) 
O=C(NO)c1cccc(C(=O)NCc2ccccc2)c1

>  <pchembl_value_mean>  (108) 
4.96

>  <document_chembl_id>  (108) 
CHEMBL2380312

$$$$

     RDKit          2D

 38 37  0  0  0  0  0  0  0  0999 V2000
    0.0000    0.0000    0.0000 C   0  0  0  0  0  0  0  0  0  0  0  0
    1.2990    0.7500    0.0000 C   0  0  0  0  0  0  0  0  0  0  0  0
    2.5981   -0.0000    0.0000 C   0  0  0  0  0  0  0  0  0  0  0  0
    3.8971    0.7500    0.0000 C   0  0  0  0  0  0  0  0  0  0  0  0
    5.1962   -0.0000    0.0000 C   0  0  0  0  0  0  0  0  0  0  0  0
    5.1962   -1.5000    0.0000 N   0  0  0  0  0  0  0  0  0  0  0  0
    6.4952   -2.2500    0.0000 C   0  0  0  0  0  0  0  0  0  0  0  0
    7.7942   -1.5000    0.0000 O   0  0  0  0  0  0  0  0  0  0  0  0
    6.4952   -3.7500    0.0000 C   0  0  0  0  0  0  0  0  0  0  0  0
    7.7942   -4.5000    0.0000 C   0  0  0  0  0  0  0  0  0  0  0  0
    9.0933   -3.7500    0.0000 O   0  0  0  0  0  0  0  0  0  0  0  0
    7.7942   -6.0000    0.0000 C   0  0  0  0  0  0  0  0  0  0  0  0
    9.0933   -6.7500    0.0000 C   0  0  0  0  0  0  0  0  0  0  0  0
    9.0933   -8.2500    0.0000 C   0  0  0  0  0  0  0  0  0  0  0  0
   10.3923   -9.0000    0.0000 C   0  0  0  0  0  0  0  0  0  0  0  0
   10.3923  -10.5000    0.0000 S   0  0  0  0  0  0  0  0  0  0  0  0
   11.6913  -11.2500    0.0000 S   0  0  0  0  0  0  0  0  0  0  0  0
   11.6913  -12.7500    0.0000 C   0  0  0  0  0  0  0  0  0  0  0  0
   12.9904  -13.5000    0.0000 C   0  0  0  0  0  0  0  0  0  0  0  0
   12.9904  -15.0000    0.0000 C   0  0  0  0  0  0  0  0  0  0  0  0
   14.2894  -15.7500    0.0000 C   0  0  0  0  0  0  0  0  0  0  0  0
   14.2894  -17.2500    0.0000 C   0  0  0  0  0  0  0  0  0  0  0  0
   12.9904  -18.0000    0.0000 O   0  0  0  0  0  0  0  0  0  0  0  0
   15.5885  -18.0000    0.0000 C   0  0  0  0  0  0  0  0  0  0  0  0
   15.5885  -19.5000    0.0000 C   0  0  0  0  0  0  0  0  0  0  0  0
   14.2894  -20.2500    0.0000 O   0  0  0  0  0  0  0  0  0  0  0  0
   16.8875  -20.2500    0.0000 N   0  0  0  0  0  0  0  0  0  0  0  0
   16.8875  -21.7500    0.0000 C   0  0  0  0  0  0  0  0  0  0  0  0
   18.1865  -22.5000    0.0000 C   0  0  0  0  0  0  0  0  0  0  0  0
   18.1865  -24.0000    0.0000 C   0  0  0  0  0  0  0  0  0  0  0  0
   19.4856  -24.7500    0.0000 C   0  0  0  0  0  0  0  0  0  0  0  0
   19.4856  -26.2500    0.0000 C   0  0  0  0  0  0  0  0  0  0  0  0
   15.5885  -22.5000    0.0000 C   0  0  0  0  0  0  0  0  0  0  0  0
   14.2894  -21.7500    0.0000 O   0  0  0  0  0  0  0  0  0  0  0  0
   15.5885  -24.0000    0.0000 O   0  0  0  0  0  0  0  0  0  0  0  0
    6.4952    0.7500    0.0000 C   0  0  0  0  0  0  0  0  0  0  0  0
    6.4952    2.2500    0.0000 O   0  0  0  0  0  0  0  0  0  0  0  0
    7.7942   -0.0000    0.0000 O   0  0  0  0  0  0  0  0  0  0  0  0
  1  2  1  0
  2  3  1  0
  3  4  1  0
  4  5  1  0
  5  6  1  0
  6  7  1  0
  7  8  2  0
  7  9  1  0
  9 10  1  0
 10 11  1  0
 10 12  1  0
 12 13  2  3
 13 14  1  0
 14 15  1  0
 15 16  1  0
 16 17  1  0
 17 18  1  0
 18 19  1  0
 19 20  1  0
 20 21  2  3
 21 22  1  0
 22 23  1  0
 22 24  1  0
 24 25  1  0
 25 26  2  0
 25 27  1  0
 27 28  1  0
 28 29  1  0
 29 30  1  0
 30 31  1  0
 31 32  1  0
 28 33  1  0
 33 34  2  0
 33 35  1  0
  5 36  1  0
 36 37  2  0
 36 38  1  0
M  END
>  <molecule_chembl_id>  (109) 
CHEMBL5087342

>  <canonical_smiles>  (109) 
CCCCC(NC(=O)CC(O)C=CCCSSCCC=CC(O)CC(=O)NC(CCCC)C(=O)O)C(=O)O

>  <pchembl_value_mean>  (109) 
4.96

>  <document_chembl_id>  (109) 
CHEMBL5046273

$$$$

     RDKit          2D

 19 19  0  0  0  0  0  0  0  0999 V2000
    3.0000    0.0000    0.0000 C   0  0  0  0  0  0  0  0  0  0  0  0
    1.5000    0.0000    0.0000 C   0  0  0  0  0  0  0  0  0  0  0  0
    0.7500   -1.2990    0.0000 C   0  0  0  0  0  0  0  0  0  0  0  0
   -0.7500   -1.2990    0.0000 C   0  0  0  0  0  0  0  0  0  0  0  0
   -1.5000    0.0000    0.0000 C   0  0  0  0  0  0  0  0  0  0  0  0
   -0.7500    1.2990    0.0000 C   0  0  0  0  0  0  0  0  0  0  0  0
   -1.5000    2.5981    0.0000 C   0  0  0  0  0  0  0  0  0  0  0  0
   -0.7500    3.8971    0.0000 C   0  0  0  0  0  0  0  0  0  0  0  0
   -1.5000    5.1962    0.0000 N   0  0  0  0  0  0  0  0  0  0  0  0
   -0.7500    6.4952    0.0000 C   0  0  0  0  0  0  0  0  0  0  0  0
    0.7500    6.4952    0.0000 O   0  0  0  0  0  0  0  0  0  0  0  0
   -1.5000    7.7942    0.0000 C   0  0  0  0  0  0  0  0  0  0  0  0
   -0.7500    9.0933    0.0000 C   0  0  0  0  0  0  0  0  0  0  0  0
   -1.5000   10.3923    0.0000 C   0  0  0  0  0  0  0  0  0  0  0  0
   -0.7500   11.6913    0.0000 C   0  0  0  0  0  0  0  0  0  0  0  0
   -1.5000   12.9904    0.0000 C   0  0  0  0  0  0  0  0  0  0  0  0
   -0.7500   14.2894    0.0000 C   0  0  0  0  0  0  0  0  0  0  0  0
   -1.5000   15.5885    0.0000 S   0  0  0  0  0  0  0  0  0  0  0  0
    0.7500    1.2990    0.0000 C   0  0  0  0  0  0  0  0  0  0  0  0
  1  2  1  0
  2  3  2  0
  3  4  1  0
  4  5  2  0
  5  6  1  0
  6  7  1  0
  7  8  1  0
  8  9  1  0
  9 10  1  0
 10 11  2  0
 10 12  1  0
 12 13  1  0
 13 14  1  0
 14 15  1  0
 15 16  1  0
 16 17  1  0
 17 18  1  0
  6 19  2  0
 19  2  1  0
M  END
>  <molecule_chembl_id>  (110) 
CHEMBL3356936

>  <canonical_smiles>  (110) 
Cc1cccc(CCNC(=O)CCCCCCS)c1

>  <pchembl_value_mean>  (110) 
4.97

>  <document_chembl_id>  (110) 
CHEMBL3352570

$$$$

     RDKit          2D

 52 58  0  0  0  0  0  0  0  0999 V2000
   -9.4590    4.8414    0.0000 C   0  0  0  0  0  0  0  0  0  0  0  0
   -8.0325    5.3050    0.0000 O   0  0  0  0  0  0  0  0  0  0  0  0
   -6.9177    4.3013    0.0000 C   0  0  0  0  0  0  0  0  0  0  0  0
   -5.4912    4.7648    0.0000 C   0  0  0  0  0  0  0  0  0  0  0  0
   -4.3764    3.7611    0.0000 C   0  0  0  0  0  0  0  0  0  0  0  0
   -2.9499    4.2246    0.0000 C   0  0  0  0  0  0  0  0  0  0  0  0
   -1.8351    3.2209    0.0000 C   0  0  0  0  0  0  0  0  0  0  0  0
   -2.1470    1.7537    0.0000 C   0  0  0  0  0  0  0  0  0  0  0  0
   -1.0323    0.7500    0.0000 C   0  0  0  0  0  0  0  0  0  0  0  0
    0.3943    1.2135    0.0000 C   0  0  0  0  0  0  0  0  0  0  0  0
    0.7062    2.6807    0.0000 C   0  0  0  0  0  0  0  0  0  0  0  0
   -0.4086    3.6844    0.0000 C   0  0  0  0  0  0  0  0  0  0  0  0
   -0.0967    5.1517    0.0000 C   0  0  0  0  0  0  0  0  0  0  0  0
    1.3299    5.6152    0.0000 N   0  0  0  0  0  0  0  0  0  0  0  0
    2.4446    4.6115    0.0000 C   0  0  0  0  0  0  0  0  0  0  0  0
    2.1328    3.1443    0.0000 C   0  0  0  0  0  0  0  0  0  0  0  0
    3.2475    2.1406    0.0000 C   0  0  0  0  0  0  0  0  0  0  0  0
    4.6741    2.6041    0.0000 C   0  0  0  0  0  0  0  0  0  0  0  0
    5.7888    1.6004    0.0000 O   0  0  0  0  0  0  0  0  0  0  0  0
    5.4769    0.1332    0.0000 C   0  0  0  0  0  0  0  0  0  0  0  0
    6.5916   -0.8705    0.0000 C   0  0  0  0  0  0  0  0  0  0  0  0
    6.2798   -2.3377    0.0000 C   0  0  0  0  0  0  0  0  0  0  0  0
    7.3945   -3.3414    0.0000 C   0  0  0  0  0  0  0  0  0  0  0  0
    7.0826   -4.8086    0.0000 C   0  0  0  0  0  0  0  0  0  0  0  0
    8.1973   -5.8123    0.0000 C   0  0  0  0  0  0  0  0  0  0  0  0
    7.8855   -7.2796    0.0000 C   0  0  0  0  0  0  0  0  0  0  0  0
    6.4589   -7.7431    0.0000 O   0  0  0  0  0  0  0  0  0  0  0  0
    9.0002   -8.2833    0.0000 N   0  0  0  0  0  0  0  0  0  0  0  0
    8.6883   -9.7505    0.0000 C   0  0  0  0  0  0  0  0  0  0  0  0
    7.2617  -10.2140    0.0000 C   0  0  0  0  0  0  0  0  0  0  0  0
    6.9498  -11.6812    0.0000 C   0  0  0  0  0  0  0  0  0  0  0  0
    8.0646  -12.6849    0.0000 C   0  0  0  0  0  0  0  0  0  0  0  0
    9.4912  -12.2214    0.0000 C   0  0  0  0  0  0  0  0  0  0  0  0
    9.8030  -10.7542    0.0000 C   0  0  0  0  0  0  0  0  0  0  0  0
   11.2296  -10.2907    0.0000 N   0  0  0  0  0  0  0  0  0  0  0  0
    4.9859    4.0713    0.0000 C   0  0  0  0  0  0  0  0  0  0  0  0
    3.8712    5.0750    0.0000 C   0  0  0  0  0  0  0  0  0  0  0  0
   -1.2114    6.1554    0.0000 C   0  0  0  0  0  0  0  0  0  0  0  0
   -1.2114    7.6554    0.0000 C   0  0  0  0  0  0  0  0  0  0  0  0
   -2.6380    8.1189    0.0000 O   0  0  0  0  0  0  0  0  0  0  0  0
   -3.5197    6.9054    0.0000 C   0  0  0  0  0  0  0  0  0  0  0  0
   -5.0197    6.9054    0.0000 O   0  0  0  0  0  0  0  0  0  0  0  0
   -2.6380    5.6918    0.0000 C   0  0  0  0  0  0  0  0  0  0  0  0
    1.2760    0.0000    0.0000 O   0  0  0  0  0  0  0  0  0  0  0  0
    0.3943   -1.2135    0.0000 C   0  0  0  0  0  0  0  0  0  0  0  0
   -1.0323   -0.7500    0.0000 O   0  0  0  0  0  0  0  0  0  0  0  0
   -4.6883    2.2939    0.0000 C   0  0  0  0  0  0  0  0  0  0  0  0
   -6.1149    1.8303    0.0000 C   0  0  0  0  0  0  0  0  0  0  0  0
   -6.4268    0.3631    0.0000 O   0  0  0  0  0  0  0  0  0  0  0  0
   -7.8533   -0.1004    0.0000 C   0  0  0  0  0  0  0  0  0  0  0  0
   -7.2296    2.8340    0.0000 C   0  0  0  0  0  0  0  0  0  0  0  0
   -8.6562    2.3705    0.0000 O   0  0  0  0  0  0  0  0  0  0  0  0
  1  2  1  0
  2  3  1  0
  3  4  2  0
  4  5  1  0
  5  6  1  0
  6  7  1  0
  7  8  2  0
  8  9  1  0
  9 10  2  0
 10 11  1  0
 11 12  2  0
 12 13  1  0
 13 14  1  0
 14 15  1  0
 15 16  2  0
 16 17  1  0
 17 18  2  0
 18 19  1  0
 19 20  1  0
 20 21  1  0
 21 22  1  0
 22 23  1  0
 23 24  1  0
 24 25  1  0
 25 26  1  0
 26 27  2  0
 26 28  1  0
 28 29  1  0
 29 30  2  0
 30 31  1  0
 31 32  2  0
 32 33  1  0
 33 34  2  0
 34 35  1  0
 18 36  1  0
 36 37  2  0
 13 38  1  0
 38 39  1  0
 39 40  1  0
 40 41  1  0
 41 42  2  0
 41 43  1  0
 10 44  1  0
 44 45  1  0
 45 46  1  0
  5 47  2  0
 47 48  1  0
 48 49  1  0
 49 50  1  0
 48 51  2  0
 51 52  1  0
 51  3  1  0
 43  6  1  0
 12  7  1  0
 37 15  1  0
 43 38  1  0
 46  9  1  0
 34 29  1  0
M  END
>  <molecule_chembl_id>  (111) 
CHEMBL2442694

>  <canonical_smiles>  (111) 
COc1cc(C2c3cc4c(cc3C(Nc3ccc(OCCCCCCC(=O)Nc5ccccc5N)cc3)C3COC(=O)C23)OCO4)cc(OC)c1O

>  <pchembl_value_mean>  (111) 
4.98

>  <document_chembl_id>  (111) 
CHEMBL2439983

$$$$

     RDKit          2D

 31 33  0  0  0  0  0  0  0  0999 V2000
   -4.5729    4.6300    0.0000 C   0  0  0  0  0  0  0  0  0  0  0  0
   -4.8848    3.1627    0.0000 C   0  0  0  0  0  0  0  0  0  0  0  0
   -6.3114    2.6992    0.0000 C   0  0  0  0  0  0  0  0  0  0  0  0
   -7.4261    3.7029    0.0000 C   0  0  0  0  0  0  0  0  0  0  0  0
   -8.8527    3.2394    0.0000 C   0  0  0  0  0  0  0  0  0  0  0  0
   -9.1645    1.7722    0.0000 O   0  0  0  0  0  0  0  0  0  0  0  0
   -9.9674    4.2431    0.0000 N   0  0  0  0  0  0  0  0  0  0  0  0
  -11.3940    3.7796    0.0000 O   0  0  0  0  0  0  0  0  0  0  0  0
   -3.7701    2.1590    0.0000 C   0  0  0  0  0  0  0  0  0  0  0  0
   -4.0819    0.6918    0.0000 C   0  0  0  0  0  0  0  0  0  0  0  0
   -5.5085    0.2283    0.0000 C   0  0  0  0  0  0  0  0  0  0  0  0
   -2.9672   -0.3119    0.0000 C   0  0  0  0  0  0  0  0  0  0  0  0
   -3.1240   -1.8037    0.0000 C   0  0  0  0  0  0  0  0  0  0  0  0
   -1.7537   -2.4138    0.0000 C   0  0  0  0  0  0  0  0  0  0  0  0
   -0.7500   -1.2990    0.0000 C   0  0  0  0  0  0  0  0  0  0  0  0
    0.7500   -1.2990    0.0000 C   0  0  0  0  0  0  0  0  0  0  0  0
    1.5000   -2.5981    0.0000 C   0  0  0  0  0  0  0  0  0  0  0  0
    3.0000   -2.5981    0.0000 C   0  0  0  0  0  0  0  0  0  0  0  0
    3.7500   -3.8971    0.0000 C   0  0  0  0  0  0  0  0  0  0  0  0
    3.0000   -5.1962    0.0000 C   0  0  0  0  0  0  0  0  0  0  0  0
    3.7500   -6.4952    0.0000 C   0  0  0  0  0  0  0  0  0  0  0  0
    3.0000   -7.7942    0.0000 O   0  0  0  0  0  0  0  0  0  0  0  0
    5.2500   -6.4952    0.0000 C   0  0  0  0  0  0  0  0  0  0  0  0
    6.0000   -5.1962    0.0000 C   0  0  0  0  0  0  0  0  0  0  0  0
    7.5000   -5.1962    0.0000 O   0  0  0  0  0  0  0  0  0  0  0  0
    5.2500   -3.8971    0.0000 C   0  0  0  0  0  0  0  0  0  0  0  0
    1.5000    0.0000    0.0000 C   0  0  0  0  0  0  0  0  0  0  0  0
    0.7500    1.2990    0.0000 C   0  0  0  0  0  0  0  0  0  0  0  0
   -0.7500    1.2990    0.0000 C   0  0  0  0  0  0  0  0  0  0  0  0
   -1.5000    0.0000    0.0000 C   0  0  0  0  0  0  0  0  0  0  0  0
   -2.3817    1.2135    0.0000 C   0  0  0  0  0  0  0  0  0  0  0  0
  1  2  1  0
  2  3  1  0
  3  4  2  3
  4  5  1  0
  5  6  2  0
  5  7  1  0
  7  8  1  0
  2  9  2  3
  9 10  1  0
 10 11  1  0
 10 12  1  0
 12 13  1  0
 13 14  1  0
 14 15  1  0
 15 16  1  0
 16 17  2  3
 17 18  1  0
 18 19  2  3
 19 20  1  0
 20 21  1  0
 21 22  1  0
 21 23  1  0
 23 24  1  0
 24 25  1  0
 24 26  1  0
 16 27  1  0
 27 28  1  0
 28 29  1  0
 29 30  1  0
 30 31  1  0
 30 12  1  0
 30 15  1  0
 26 19  1  0
M  END
>  <molecule_chembl_id>  (112) 
CHEMBL1164992

>  <canonical_smiles>  (112) 
CC(C=CC(=O)NO)=CC(C)C1CCC2C(=CC=C3CC(O)CC(O)C3)CCCC21C

>  <pchembl_value_mean>  (112) 
4.98

>  <document_chembl_id>  (112) 
CHEMBL1165922

$$$$

     RDKit          2D

 27 30  0  0  0  0  0  0  0  0999 V2000
   -3.7500   -3.8971    0.0000 C   0  0  0  0  0  0  0  0  0  0  0  0
   -3.0000   -2.5981    0.0000 C   0  0  0  0  0  0  0  0  0  0  0  0
   -3.7500   -1.2990    0.0000 C   0  0  0  0  0  0  0  0  0  0  0  0
   -5.2500   -1.2990    0.0000 O   0  0  0  0  0  0  0  0  0  0  0  0
   -3.0000    0.0000    0.0000 C   0  0  0  0  0  0  0  0  0  0  0  0
   -3.7500    1.2990    0.0000 O   0  0  0  0  0  0  0  0  0  0  0  0
   -1.5000    0.0000    0.0000 C   0  0  0  0  0  0  0  0  0  0  0  0
   -0.7500   -1.2990    0.0000 C   0  0  0  0  0  0  0  0  0  0  0  0
   -1.5000   -2.5981    0.0000 C   0  0  0  0  0  0  0  0  0  0  0  0
   -0.7500   -3.8971    0.0000 C   0  0  0  0  0  0  0  0  0  0  0  0
   -1.5000   -5.1962    0.0000 O   0  0  0  0  0  0  0  0  0  0  0  0
    0.7500   -1.2990    0.0000 C   0  0  0  0  0  0  0  0  0  0  0  0
    1.5000    0.0000    0.0000 O   0  0  0  0  0  0  0  0  0  0  0  0
    0.7500    1.2990    0.0000 C   0  0  0  0  0  0  0  0  0  0  0  0
   -0.7500    1.2990    0.0000 O   0  0  0  0  0  0  0  0  0  0  0  0
    2.2500    1.2990    0.0000 C   0  0  0  0  0  0  0  0  0  0  0  0
    3.0000    2.5981    0.0000 C   0  0  0  0  0  0  0  0  0  0  0  0
    2.2500    3.8971    0.0000 C   0  0  0  0  0  0  0  0  0  0  0  0
    4.5000    2.5981    0.0000 C   0  0  0  0  0  0  0  0  0  0  0  0
    5.2500    3.8971    0.0000 O   0  0  0  0  0  0  0  0  0  0  0  0
    5.2500    1.2990    0.0000 C   0  0  0  0  0  0  0  0  0  0  0  0
    6.7500    1.2990    0.0000 O   0  0  0  0  0  0  0  0  0  0  0  0
    4.5000   -0.0000    0.0000 C   0  0  0  0  0  0  0  0  0  0  0  0
    5.2500   -1.2990    0.0000 O   0  0  0  0  0  0  0  0  0  0  0  0
    3.0000   -0.0000    0.0000 C   0  0  0  0  0  0  0  0  0  0  0  0
    2.2500   -1.2990    0.0000 C   0  0  0  0  0  0  0  0  0  0  0  0
    3.0000   -2.5981    0.0000 O   0  0  0  0  0  0  0  0  0  0  0  0
  1  2  1  0
  2  3  2  0
  3  4  1  0
  3  5  1  0
  5  6  1  0
  5  7  2  0
  7  8  1  0
  8  9  2  0
  9 10  1  0
 10 11  2  0
  8 12  1  0
 12 13  1  0
 13 14  1  0
 14 15  1  0
 14 16  1  0
 16 17  2  0
 17 18  1  0
 17 19  1  0
 19 20  1  0
 19 21  2  0
 21 22  1  0
 21 23  1  0
 23 24  1  0
 23 25  2  0
 25 26  1  0
 26 27  2  0
  9  2  1  0
 26 12  1  0
 15  7  1  0
 25 16  1  0
M  END
>  <molecule_chembl_id>  (113) 
CHEMBL3104851

>  <canonical_smiles>  (113) 
Cc1c(O)c(O)c2c(c1C=O)C1OC(O2)c2c(C)c(O)c(O)c(O)c2C1=O

>  <pchembl_value_mean>  (113) 
5.0

>  <document_chembl_id>  (113) 
CHEMBL3102702

$$$$

     RDKit          2D

 25 28  0  0  0  0  0  0  0  0999 V2000
   -6.9199   -4.5797    0.0000 N   0  0  0  0  0  0  0  0  0  0  0  0
   -5.4933   -4.1162    0.0000 C   0  0  0  0  0  0  0  0  0  0  0  0
   -5.1814   -2.6490    0.0000 C   0  0  0  0  0  0  0  0  0  0  0  0
   -3.7548   -2.1855    0.0000 C   0  0  0  0  0  0  0  0  0  0  0  0
   -2.6401   -3.1891    0.0000 C   0  0  0  0  0  0  0  0  0  0  0  0
   -1.2135   -2.7256    0.0000 C   0  0  0  0  0  0  0  0  0  0  0  0
   -0.0000   -3.6073    0.0000 C   0  0  0  0  0  0  0  0  0  0  0  0
    1.2135   -2.7256    0.0000 S   0  0  0  0  0  0  0  0  0  0  0  0
    0.7500   -1.2990    0.0000 C   0  0  0  0  0  0  0  0  0  0  0  0
    1.5000    0.0000    0.0000 C   0  0  0  0  0  0  0  0  0  0  0  0
    0.7500    1.2990    0.0000 C   0  0  0  0  0  0  0  0  0  0  0  0
   -0.7500    1.2990    0.0000 C   0  0  0  0  0  0  0  0  0  0  0  0
   -1.5000    0.0000    0.0000 C   0  0  0  0  0  0  0  0  0  0  0  0
   -0.7500   -1.2990    0.0000 C   0  0  0  0  0  0  0  0  0  0  0  0
   -2.9520   -4.6564    0.0000 C   0  0  0  0  0  0  0  0  0  0  0  0
   -4.3786   -5.1199    0.0000 C   0  0  0  0  0  0  0  0  0  0  0  0
   -4.6904   -6.5871    0.0000 N   0  0  0  0  0  0  0  0  0  0  0  0
   -3.5757   -7.5908    0.0000 C   0  0  0  0  0  0  0  0  0  0  0  0
   -2.1491   -7.1273    0.0000 O   0  0  0  0  0  0  0  0  0  0  0  0
   -3.8876   -9.0580    0.0000 C   0  0  0  0  0  0  0  0  0  0  0  0
   -5.3142   -9.5216    0.0000 C   0  0  0  0  0  0  0  0  0  0  0  0
   -5.6260  -10.9888    0.0000 C   0  0  0  0  0  0  0  0  0  0  0  0
   -4.5113  -11.9925    0.0000 C   0  0  0  0  0  0  0  0  0  0  0  0
   -3.0847  -11.5290    0.0000 C   0  0  0  0  0  0  0  0  0  0  0  0
   -2.7729  -10.0617    0.0000 C   0  0  0  0  0  0  0  0  0  0  0  0
  1  2  1  0
  2  3  2  0
  3  4  1  0
  4  5  2  0
  5  6  1  0
  6  7  2  0
  7  8  1  0
  8  9  1  0
  9 10  2  0
 10 11  1  0
 11 12  2  0
 12 13  1  0
 13 14  2  0
  5 15  1  0
 15 16  2  0
 16 17  1  0
 17 18  1  0
 18 19  2  0
 18 20  1  0
 20 21  2  0
 21 22  1  0
 22 23  2  0
 23 24  1  0
 24 25  2  0
 16  2  1  0
 25 20  1  0
 14  6  1  0
 14  9  1  0
M  END
>  <molecule_chembl_id>  (114) 
CHEMBL1097745

>  <canonical_smiles>  (114) 
Nc1ccc(-c2csc3ccccc23)cc1NC(=O)c1ccccc1

>  <pchembl_value_mean>  (114) 
5.0

>  <document_chembl_id>  (114) 
CHEMBL1158590

$$$$

     RDKit          2D

 25 28  0  0  0  0  0  0  0  0999 V2000
    0.0000   -9.6073    0.0000 N   0  0  0  0  0  0  0  0  0  0  0  0
    0.0000   -8.1073    0.0000 C   0  0  0  0  0  0  0  0  0  0  0  0
   -1.2990   -7.3573    0.0000 C   0  0  0  0  0  0  0  0  0  0  0  0
   -1.2990   -5.8573    0.0000 C   0  0  0  0  0  0  0  0  0  0  0  0
   -0.0000   -5.1073    0.0000 C   0  0  0  0  0  0  0  0  0  0  0  0
   -0.0000   -3.6073    0.0000 C   0  0  0  0  0  0  0  0  0  0  0  0
    1.2135   -2.7256    0.0000 C   0  0  0  0  0  0  0  0  0  0  0  0
    0.7500   -1.2990    0.0000 C   0  0  0  0  0  0  0  0  0  0  0  0
    1.5000    0.0000    0.0000 C   0  0  0  0  0  0  0  0  0  0  0  0
    0.7500    1.2990    0.0000 C   0  0  0  0  0  0  0  0  0  0  0  0
   -0.7500    1.2990    0.0000 C   0  0  0  0  0  0  0  0  0  0  0  0
   -1.5000    0.0000    0.0000 C   0  0  0  0  0  0  0  0  0  0  0  0
   -0.7500   -1.2990    0.0000 C   0  0  0  0  0  0  0  0  0  0  0  0
   -1.2135   -2.7256    0.0000 S   0  0  0  0  0  0  0  0  0  0  0  0
    1.2990   -5.8573    0.0000 C   0  0  0  0  0  0  0  0  0  0  0  0
    1.2990   -7.3573    0.0000 C   0  0  0  0  0  0  0  0  0  0  0  0
    2.5981   -8.1073    0.0000 N   0  0  0  0  0  0  0  0  0  0  0  0
    3.8971   -7.3573    0.0000 C   0  0  0  0  0  0  0  0  0  0  0  0
    3.8971   -5.8573    0.0000 O   0  0  0  0  0  0  0  0  0  0  0  0
    5.1962   -8.1073    0.0000 C   0  0  0  0  0  0  0  0  0  0  0  0
    5.1962   -9.6073    0.0000 C   0  0  0  0  0  0  0  0  0  0  0  0
    6.4952  -10.3573    0.0000 C   0  0  0  0  0  0  0  0  0  0  0  0
    7.7942   -9.6073    0.0000 C   0  0  0  0  0  0  0  0  0  0  0  0
    7.7942   -8.1073    0.0000 C   0  0  0  0  0  0  0  0  0  0  0  0
    6.4952   -7.3573    0.0000 C   0  0  0  0  0  0  0  0  0  0  0  0
  1  2  1  0
  2  3  2  0
  3  4  1  0
  4  5  2  0
  5  6  1  0
  6  7  2  0
  7  8  1  0
  8  9  2  0
  9 10  1  0
 10 11  2  0
 11 12  1  0
 12 13  2  0
 13 14  1  0
  5 15  1  0
 15 16  2  0
 16 17  1  0
 17 18  1  0
 18 19  2  0
 18 20  1  0
 20 21  2  0
 21 22  1  0
 22 23  2  0
 23 24  1  0
 24 25  2  0
 16  2  1  0
 25 20  1  0
 14  6  1  0
 13  8  1  0
M  END
>  <molecule_chembl_id>  (115) 
CHEMBL1096398

>  <canonical_smiles>  (115) 
Nc1ccc(-c2cc3ccccc3s2)cc1NC(=O)c1ccccc1

>  <pchembl_value_mean>  (115) 
5.0

>  <document_chembl_id>  (115) 
CHEMBL1158590

$$$$

     RDKit          2D

 25 28  0  0  0  0  0  0  0  0999 V2000
    0.0000   -9.6073    0.0000 N   0  0  0  0  0  0  0  0  0  0  0  0
    0.0000   -8.1073    0.0000 C   0  0  0  0  0  0  0  0  0  0  0  0
   -1.2990   -7.3573    0.0000 C   0  0  0  0  0  0  0  0  0  0  0  0
   -1.2990   -5.8573    0.0000 C   0  0  0  0  0  0  0  0  0  0  0  0
   -0.0000   -5.1073    0.0000 C   0  0  0  0  0  0  0  0  0  0  0  0
   -0.0000   -3.6073    0.0000 C   0  0  0  0  0  0  0  0  0  0  0  0
    1.2135   -2.7256    0.0000 C   0  0  0  0  0  0  0  0  0  0  0  0
    0.7500   -1.2990    0.0000 C   0  0  0  0  0  0  0  0  0  0  0  0
    1.5000    0.0000    0.0000 C   0  0  0  0  0  0  0  0  0  0  0  0
    0.7500    1.2990    0.0000 C   0  0  0  0  0  0  0  0  0  0  0  0
   -0.7500    1.2990    0.0000 C   0  0  0  0  0  0  0  0  0  0  0  0
   -1.5000    0.0000    0.0000 C   0  0  0  0  0  0  0  0  0  0  0  0
   -0.7500   -1.2990    0.0000 C   0  0  0  0  0  0  0  0  0  0  0  0
   -1.2135   -2.7256    0.0000 O   0  0  0  0  0  0  0  0  0  0  0  0
    1.2990   -5.8573    0.0000 C   0  0  0  0  0  0  0  0  0  0  0  0
    1.2990   -7.3573    0.0000 C   0  0  0  0  0  0  0  0  0  0  0  0
    2.5981   -8.1073    0.0000 N   0  0  0  0  0  0  0  0  0  0  0  0
    3.8971   -7.3573    0.0000 C   0  0  0  0  0  0  0  0  0  0  0  0
    3.8971   -5.8573    0.0000 O   0  0  0  0  0  0  0  0  0  0  0  0
    5.1962   -8.1073    0.0000 C   0  0  0  0  0  0  0  0  0  0  0  0
    5.1962   -9.6073    0.0000 C   0  0  0  0  0  0  0  0  0  0  0  0
    6.4952  -10.3573    0.0000 C   0  0  0  0  0  0  0  0  0  0  0  0
    7.7942   -9.6073    0.0000 C   0  0  0  0  0  0  0  0  0  0  0  0
    7.7942   -8.1073    0.0000 C   0  0  0  0  0  0  0  0  0  0  0  0
    6.4952   -7.3573    0.0000 C   0  0  0  0  0  0  0  0  0  0  0  0
  1  2  1  0
  2  3  2  0
  3  4  1  0
  4  5  2  0
  5  6  1  0
  6  7  2  0
  7  8  1  0
  8  9  2  0
  9 10  1  0
 10 11  2  0
 11 12  1  0
 12 13  2  0
 13 14  1  0
  5 15  1  0
 15 16  2  0
 16 17  1  0
 17 18  1  0
 18 19  2  0
 18 20  1  0
 20 21  2  0
 21 22  1  0
 22 23  2  0
 23 24  1  0
 24 25  2  0
 16  2  1  0
 25 20  1  0
 14  6  1  0
 13  8  1  0
M  END
>  <molecule_chembl_id>  (116) 
CHEMBL1097063

>  <canonical_smiles>  (116) 
Nc1ccc(-c2cc3ccccc3o2)cc1NC(=O)c1ccccc1

>  <pchembl_value_mean>  (116) 
5.0

>  <document_chembl_id>  (116) 
CHEMBL1158590

$$$$

     RDKit          2D

 27 29  0  0  0  0  0  0  0  0999 V2000
    3.0000    0.0000    0.0000 N   0  0  0  0  0  0  0  0  0  0  0  0
    1.5000    0.0000    0.0000 C   0  0  0  0  0  0  0  0  0  0  0  0
    0.7500   -1.2990    0.0000 C   0  0  0  0  0  0  0  0  0  0  0  0
   -0.7500   -1.2990    0.0000 C   0  0  0  0  0  0  0  0  0  0  0  0
   -1.5000   -2.5981    0.0000 F   0  0  0  0  0  0  0  0  0  0  0  0
   -1.5000    0.0000    0.0000 C   0  0  0  0  0  0  0  0  0  0  0  0
   -0.7500    1.2990    0.0000 C   0  0  0  0  0  0  0  0  0  0  0  0
    0.7500    1.2990    0.0000 C   0  0  0  0  0  0  0  0  0  0  0  0
    1.5000    2.5981    0.0000 N   0  0  0  0  0  0  0  0  0  0  0  0
    0.7500    3.8971    0.0000 C   0  0  0  0  0  0  0  0  0  0  0  0
   -0.7500    3.8971    0.0000 O   0  0  0  0  0  0  0  0  0  0  0  0
    1.5000    5.1962    0.0000 C   0  0  0  0  0  0  0  0  0  0  0  0
    0.7500    6.4952    0.0000 C   0  0  0  0  0  0  0  0  0  0  0  0
    1.5000    7.7942    0.0000 C   0  0  0  0  0  0  0  0  0  0  0  0
    0.8899    9.1645    0.0000 C   0  0  0  0  0  0  0  0  0  0  0  0
    2.0046   10.1682    0.0000 N   0  0  0  0  0  0  0  0  0  0  0  0
    3.3037    9.4182    0.0000 N   0  0  0  0  0  0  0  0  0  0  0  0
    4.6740   10.0283    0.0000 C   0  0  0  0  0  0  0  0  0  0  0  0
    5.8875    9.1467    0.0000 C   0  0  0  0  0  0  0  0  0  0  0  0
    7.2578    9.7568    0.0000 C   0  0  0  0  0  0  0  0  0  0  0  0
    8.4713    8.8751    0.0000 C   0  0  0  0  0  0  0  0  0  0  0  0
    8.3145    7.3833    0.0000 C   0  0  0  0  0  0  0  0  0  0  0  0
    9.5281    6.5016    0.0000 C   0  0  0  0  0  0  0  0  0  0  0  0
   10.8984    7.1117    0.0000 C   0  0  0  0  0  0  0  0  0  0  0  0
   11.0552    8.6035    0.0000 C   0  0  0  0  0  0  0  0  0  0  0  0
    9.8417    9.4852    0.0000 C   0  0  0  0  0  0  0  0  0  0  0  0
    2.9918    7.9510    0.0000 C   0  0  0  0  0  0  0  0  0  0  0  0
  1  2  1  0
  2  3  2  0
  3  4  1  0
  4  5  1  0
  4  6  2  0
  6  7  1  0
  7  8  2  0
  8  9  1  0
  9 10  1  0
 10 11  2  0
 10 12  1  0
 12 13  2  3
 13 14  1  0
 14 15  1  0
 15 16  2  0
 16 17  1  0
 17 18  1  0
 18 19  1  0
 19 20  2  3
 20 21  1  0
 21 22  2  0
 22 23  1  0
 23 24  2  0
 24 25  1  0
 25 26  2  0
 17 27  1  0
  8  2  1  0
 27 14  2  0
 26 21  1  0
M  END
>  <molecule_chembl_id>  (117) 
CHEMBL4078477

>  <canonical_smiles>  (117) 
Nc1cc(F)ccc1NC(=O)C=Cc1cnn(CC=Cc2ccccc2)c1

>  <pchembl_value_mean>  (117) 
5.01

>  <document_chembl_id>  (117) 
CHEMBL4351000

$$$$

     RDKit          2D

 33 36  0  0  0  0  0  0  0  0999 V2000
    6.0000   -0.0000    0.0000 C   0  0  0  0  0  0  0  0  0  0  0  0
    5.2500   -1.2990    0.0000 C   0  0  0  0  0  0  0  0  0  0  0  0
    3.7500   -1.2990    0.0000 O   0  0  0  0  0  0  0  0  0  0  0  0
    3.0000   -2.5981    0.0000 C   0  0  0  0  0  0  0  0  0  0  0  0
    3.7500   -3.8971    0.0000 C   0  0  0  0  0  0  0  0  0  0  0  0
    3.0000   -5.1962    0.0000 C   0  0  0  0  0  0  0  0  0  0  0  0
    1.5000   -5.1962    0.0000 C   0  0  0  0  0  0  0  0  0  0  0  0
    0.7500   -6.4952    0.0000 O   0  0  0  0  0  0  0  0  0  0  0  0
   -0.7500   -6.4952    0.0000 C   0  0  0  0  0  0  0  0  0  0  0  0
   -1.5000   -5.1962    0.0000 C   0  0  0  0  0  0  0  0  0  0  0  0
   -3.0000   -5.1962    0.0000 C   0  0  0  0  0  0  0  0  0  0  0  0
   -3.7500   -6.4952    0.0000 C   0  0  0  0  0  0  0  0  0  0  0  0
   -5.2500   -6.4952    0.0000 C   0  0  0  0  0  0  0  0  0  0  0  0
   -6.0000   -7.7942    0.0000 O   0  0  0  0  0  0  0  0  0  0  0  0
   -6.0000   -5.1962    0.0000 N   0  0  0  0  0  0  0  0  0  0  0  0
   -7.5000   -5.1962    0.0000 O   0  0  0  0  0  0  0  0  0  0  0  0
   -3.0000   -7.7942    0.0000 C   0  0  0  0  0  0  0  0  0  0  0  0
   -1.5000   -7.7942    0.0000 C   0  0  0  0  0  0  0  0  0  0  0  0
    0.7500   -3.8971    0.0000 C   0  0  0  0  0  0  0  0  0  0  0  0
    1.5000   -2.5981    0.0000 C   0  0  0  0  0  0  0  0  0  0  0  0
    0.7500   -1.2990    0.0000 C   0  0  0  0  0  0  0  0  0  0  0  0
    1.5000    0.0000    0.0000 N   0  0  0  0  0  0  0  0  0  0  0  0
    0.7500    1.2990    0.0000 C   0  0  0  0  0  0  0  0  0  0  0  0
    1.2135    2.7256    0.0000 C   0  0  0  0  0  0  0  0  0  0  0  0
    2.6401    3.1891    0.0000 C   0  0  0  0  0  0  0  0  0  0  0  0
    2.9520    4.6564    0.0000 C   0  0  0  0  0  0  0  0  0  0  0  0
    0.0000    3.6073    0.0000 N   0  0  0  0  0  0  0  0  0  0  0  0
   -1.2135    2.7256    0.0000 N   0  0  0  0  0  0  0  0  0  0  0  0
   -2.6401    3.1891    0.0000 C   0  0  0  0  0  0  0  0  0  0  0  0
   -0.7500    1.2990    0.0000 C   0  0  0  0  0  0  0  0  0  0  0  0
   -1.5000    0.0000    0.0000 C   0  0  0  0  0  0  0  0  0  0  0  0
   -3.0000    0.0000    0.0000 O   0  0  0  0  0  0  0  0  0  0  0  0
   -0.7500   -1.2990    0.0000 N   0  0  0  0  0  0  0  0  0  0  0  0
  1  2  1  0
  2  3  1  0
  3  4  1  0
  4  5  2  0
  5  6  1  0
  6  7  2  0
  7  8  1  0
  8  9  1  0
  9 10  1  0
 10 11  1  0
 11 12  1  0
 12 13  1  0
 13 14  2  0
 13 15  1  0
 15 16  1  0
 12 17  1  0
 17 18  1  0
  7 19  1  0
 19 20  2  0
 20 21  1  0
 21 22  2  0
 22 23  1  0
 23 24  1  0
 24 25  1  0
 25 26  1  0
 24 27  2  0
 27 28  1  0
 28 29  1  0
 28 30  1  0
 30 31  1  0
 31 32  2  0
 31 33  1  0
 20  4  1  0
 33 21  1  0
 18  9  1  0
 30 23  2  0
M  END
>  <molecule_chembl_id>  (118) 
CHEMBL3945565

>  <canonical_smiles>  (118) 
CCOc1ccc(OC2CCC(C(=O)NO)CC2)cc1-c1nc2c(CC)nn(C)c2c(=O)[nH]1

>  <pchembl_value_mean>  (118) 
5.01

>  <document_chembl_id>  (118) 
CHEMBL3860059

$$$$

     RDKit          2D

 29 30  0  0  0  0  0  0  0  0999 V2000
    3.0000    0.0000    0.0000 N   0  0  0  0  0  0  0  0  0  0  0  0
    1.5000    0.0000    0.0000 C   0  0  0  0  0  0  0  0  0  0  0  0
    0.7500   -1.2990    0.0000 C   0  0  0  0  0  0  0  0  0  0  0  0
   -0.7500   -1.2990    0.0000 C   0  0  0  0  0  0  0  0  0  0  0  0
   -1.5000    0.0000    0.0000 C   0  0  0  0  0  0  0  0  0  0  0  0
   -0.7500    1.2990    0.0000 C   0  0  0  0  0  0  0  0  0  0  0  0
    0.7500    1.2990    0.0000 C   0  0  0  0  0  0  0  0  0  0  0  0
    1.5000    2.5981    0.0000 N   0  0  0  0  0  0  0  0  0  0  0  0
    0.7500    3.8971    0.0000 C   0  0  0  0  0  0  0  0  0  0  0  0
   -0.7500    3.8971    0.0000 O   0  0  0  0  0  0  0  0  0  0  0  0
    1.5000    5.1962    0.0000 C   0  0  0  0  0  0  0  0  0  0  0  0
    0.7500    6.4952    0.0000 C   0  0  0  0  0  0  0  0  0  0  0  0
    1.5000    7.7942    0.0000 C   0  0  0  0  0  0  0  0  0  0  0  0
    0.7500    9.0933    0.0000 C   0  0  0  0  0  0  0  0  0  0  0  0
    1.5000   10.3923    0.0000 N   0  0  0  0  0  0  0  0  0  0  0  0
    0.7500   11.6913    0.0000 C   0  0  0  0  0  0  0  0  0  0  0  0
   -0.7500   11.6913    0.0000 O   0  0  0  0  0  0  0  0  0  0  0  0
    1.5000   12.9904    0.0000 C   0  0  0  0  0  0  0  0  0  0  0  0
    0.7500   14.2894    0.0000 C   0  0  0  0  0  0  0  0  0  0  0  0
    1.5000   15.5885    0.0000 C   0  0  0  0  0  0  0  0  0  0  0  0
    3.0000   15.5885    0.0000 C   0  0  0  0  0  0  0  0  0  0  0  0
    3.7500   16.8875    0.0000 C   0  0  0  0  0  0  0  0  0  0  0  0
    3.0000   18.1865    0.0000 C   0  0  0  0  0  0  0  0  0  0  0  0
    3.7500   19.4856    0.0000 O   0  0  0  0  0  0  0  0  0  0  0  0
    1.5000   18.1865    0.0000 C   0  0  0  0  0  0  0  0  0  0  0  0
    0.7500   19.4856    0.0000 Br  0  0  0  0  0  0  0  0  0  0  0  0
    0.7500   16.8875    0.0000 C   0  0  0  0  0  0  0  0  0  0  0  0
    3.0000   12.9904    0.0000 N   0  0  0  0  0  0  0  0  0  0  0  0
    3.7500   14.2894    0.0000 O   0  0  0  0  0  0  0  0  0  0  0  0
  1  2  1  0
  2  3  2  0
  3  4  1  0
  4  5  2  0
  5  6  1  0
  6  7  2  0
  7  8  1  0
  8  9  1  0
  9 10  2  0
  9 11  1  0
 11 12  1  0
 12 13  1  0
 13 14  1  0
 14 15  1  0
 15 16  1  0
 16 17  2  0
 16 18  1  0
 18 19  1  0
 19 20  1  0
 20 21  2  0
 21 22  1  0
 22 23  2  0
 23 24  1  0
 23 25  1  0
 25 26  1  0
 25 27  2  0
 18 28  2  3
 28 29  1  0
  7  2  1  0
 27 20  1  0
M  END
>  <molecule_chembl_id>  (119) 
CHEMBL4747950

>  <canonical_smiles>  (119) 
Nc1ccccc1NC(=O)CCCCNC(=O)C(Cc1ccc(O)c(Br)c1)=NO

>  <pchembl_value_mean>  (119) 
5.01

>  <document_chembl_id>  (119) 
CHEMBL4673384

$$$$

     RDKit          2D

 29 32  0  0  0  0  0  0  0  0999 V2000
    3.7500    1.2990    0.0000 O   0  0  0  0  0  0  0  0  0  0  0  0
    3.0000    0.0000    0.0000 C   0  0  0  0  0  0  0  0  0  0  0  0
    3.7500   -1.2990    0.0000 N   0  0  0  0  0  0  0  0  0  0  0  0
    5.2500   -1.2990    0.0000 O   0  0  0  0  0  0  0  0  0  0  0  0
    1.5000    0.0000    0.0000 C   0  0  0  0  0  0  0  0  0  0  0  0
    0.7500   -1.2990    0.0000 C   0  0  0  0  0  0  0  0  0  0  0  0
   -0.7500   -1.2990    0.0000 C   0  0  0  0  0  0  0  0  0  0  0  0
   -1.5000    0.0000    0.0000 C   0  0  0  0  0  0  0  0  0  0  0  0
   -3.0000    0.0000    0.0000 C   0  0  0  0  0  0  0  0  0  0  0  0
   -3.7500    1.2990    0.0000 S   0  0  0  0  0  0  0  0  0  0  0  0
   -5.2500    1.2990    0.0000 C   0  0  0  0  0  0  0  0  0  0  0  0
   -6.1317    0.0855    0.0000 N   0  0  0  0  0  0  0  0  0  0  0  0
   -7.5583    0.5490    0.0000 N   0  0  0  0  0  0  0  0  0  0  0  0
   -7.5583    2.0490    0.0000 C   0  0  0  0  0  0  0  0  0  0  0  0
   -8.7718    2.9307    0.0000 C   0  0  0  0  0  0  0  0  0  0  0  0
   -8.6150    4.4225    0.0000 C   0  0  0  0  0  0  0  0  0  0  0  0
   -9.8285    5.3042    0.0000 C   0  0  0  0  0  0  0  0  0  0  0  0
  -11.1988    4.6941    0.0000 N   0  0  0  0  0  0  0  0  0  0  0  0
  -11.3556    3.2023    0.0000 C   0  0  0  0  0  0  0  0  0  0  0  0
  -10.1421    2.3206    0.0000 C   0  0  0  0  0  0  0  0  0  0  0  0
   -6.1317    2.5126    0.0000 N   0  0  0  0  0  0  0  0  0  0  0  0
   -5.6682    3.9391    0.0000 C   0  0  0  0  0  0  0  0  0  0  0  0
   -4.2009    4.2510    0.0000 C   0  0  0  0  0  0  0  0  0  0  0  0
   -3.7374    5.6776    0.0000 C   0  0  0  0  0  0  0  0  0  0  0  0
   -4.7411    6.7923    0.0000 C   0  0  0  0  0  0  0  0  0  0  0  0
   -6.2083    6.4805    0.0000 C   0  0  0  0  0  0  0  0  0  0  0  0
   -6.6718    5.0539    0.0000 C   0  0  0  0  0  0  0  0  0  0  0  0
   -0.7500    1.2990    0.0000 C   0  0  0  0  0  0  0  0  0  0  0  0
    0.7500    1.2990    0.0000 C   0  0  0  0  0  0  0  0  0  0  0  0
  1  2  2  0
  2  3  1  0
  3  4  1  0
  2  5  1  0
  5  6  2  0
  6  7  1  0
  7  8  2  0
  8  9  1  0
  9 10  1  0
 10 11  1  0
 11 12  2  0
 12 13  1  0
 13 14  2  0
 14 15  1  0
 15 16  2  0
 16 17  1  0
 17 18  2  0
 18 19  1  0
 19 20  2  0
 14 21  1  0
 21 22  1  0
 22 23  2  0
 23 24  1  0
 24 25  2  0
 25 26  1  0
 26 27  2  0
  8 28  1  0
 28 29  2  0
 29  5  1  0
 21 11  1  0
 27 22  1  0
 20 15  1  0
M  END
>  <molecule_chembl_id>  (120) 
CHEMBL4845926

>  <canonical_smiles>  (120) 
O=C(NO)c1ccc(CSc2nnc(-c3ccncc3)n2-c2ccccc2)cc1

>  <pchembl_value_mean>  (120) 
5.01

>  <document_chembl_id>  (120) 
CHEMBL4823270

$$$$

     RDKit          2D

 35 37  0  0  0  0  0  0  0  0999 V2000
   -3.7500   -6.4952    0.0000 C   0  0  0  0  0  0  0  0  0  0  0  0
   -3.0000   -5.1962    0.0000 C   0  0  0  0  0  0  0  0  0  0  0  0
   -3.7500   -3.8971    0.0000 C   0  0  0  0  0  0  0  0  0  0  0  0
   -1.5000   -5.1962    0.0000 C   0  0  0  0  0  0  0  0  0  0  0  0
   -0.7500   -3.8971    0.0000 C   0  0  0  0  0  0  0  0  0  0  0  0
    0.7500   -3.8971    0.0000 C   0  0  0  0  0  0  0  0  0  0  0  0
    1.5000   -2.5981    0.0000 C   0  0  0  0  0  0  0  0  0  0  0  0
    3.0000   -2.5981    0.0000 O   0  0  0  0  0  0  0  0  0  0  0  0
    0.7500   -1.2990    0.0000 N   0  0  0  0  0  0  0  0  0  0  0  0
    1.5000    0.0000    0.0000 C   0  0  0  0  0  0  0  0  0  0  0  0
    0.7500    1.2990    0.0000 C   0  0  0  0  0  0  0  0  0  0  0  0
   -0.7500    1.2990    0.0000 C   0  0  0  0  0  0  0  0  0  0  0  0
   -1.7537    2.4138    0.0000 O   0  0  0  0  0  0  0  0  0  0  0  0
   -3.1240    1.8037    0.0000 N   0  0  0  0  0  0  0  0  0  0  0  0
   -2.9672    0.3119    0.0000 C   0  0  0  0  0  0  0  0  0  0  0  0
   -4.0819   -0.6918    0.0000 C   0  0  0  0  0  0  0  0  0  0  0  0
   -3.7701   -2.1590    0.0000 O   0  0  0  0  0  0  0  0  0  0  0  0
   -5.5085   -0.2283    0.0000 N   0  0  0  0  0  0  0  0  0  0  0  0
   -6.6232   -1.2320    0.0000 C   0  0  0  0  0  0  0  0  0  0  0  0
   -8.0498   -0.7685    0.0000 C   0  0  0  0  0  0  0  0  0  0  0  0
   -9.1645   -1.7722    0.0000 C   0  0  0  0  0  0  0  0  0  0  0  0
  -10.5911   -1.3086    0.0000 C   0  0  0  0  0  0  0  0  0  0  0  0
  -11.7058   -2.3123    0.0000 C   0  0  0  0  0  0  0  0  0  0  0  0
  -13.1324   -1.8488    0.0000 C   0  0  0  0  0  0  0  0  0  0  0  0
  -14.2471   -2.8525    0.0000 C   0  0  0  0  0  0  0  0  0  0  0  0
  -13.9353   -4.3197    0.0000 O   0  0  0  0  0  0  0  0  0  0  0  0
  -15.6737   -2.3890    0.0000 N   0  0  0  0  0  0  0  0  0  0  0  0
  -16.7884   -3.3927    0.0000 O   0  0  0  0  0  0  0  0  0  0  0  0
   -1.5000    0.0000    0.0000 C   0  0  0  0  0  0  0  0  0  0  0  0
   -0.7500   -1.2990    0.0000 C   0  0  0  0  0  0  0  0  0  0  0  0
    1.5000   -5.1962    0.0000 C   0  0  0  0  0  0  0  0  0  0  0  0
    3.0000   -5.1962    0.0000 O   0  0  0  0  0  0  0  0  0  0  0  0
    0.7500   -6.4952    0.0000 C   0  0  0  0  0  0  0  0  0  0  0  0
   -0.7500   -6.4952    0.0000 C   0  0  0  0  0  0  0  0  0  0  0  0
   -1.5000   -7.7942    0.0000 O   0  0  0  0  0  0  0  0  0  0  0  0
  1  2  1  0
  2  3  1  0
  2  4  1  0
  4  5  2  0
  5  6  1  0
  6  7  1  0
  7  8  2  0
  7  9  1  0
  9 10  1  0
 10 11  1  0
 11 12  1  0
 12 13  1  0
 13 14  1  0
 14 15  2  0
 15 16  1  0
 16 17  2  0
 16 18  1  0
 18 19  1  0
 19 20  1  0
 20 21  1  0
 21 22  1  0
 22 23  1  0
 23 24  1  0
 24 25  1  0
 25 26  2  0
 25 27  1  0
 27 28  1  0
 15 29  1  0
 29 30  1  0
  6 31  2  0
 31 32  1  0
 31 33  1  0
 33 34  2  0
 34 35  1  0
 34  4  1  0
 30  9  1  0
 29 12  2  0
M  END
>  <molecule_chembl_id>  (121) 
CHEMBL3233755

>  <canonical_smiles>  (121) 
CC(C)c1cc(C(=O)N2CCc3onc(C(=O)NCCCCCCC(=O)NO)c3C2)c(O)cc1O

>  <pchembl_value_mean>  (121) 
5.02

>  <document_chembl_id>  (121) 
CHEMBL3232879

$$$$

     RDKit          2D

 28 29  0  0  0  0  0  0  0  0999 V2000
   10.5000    2.5981    0.0000 C   0  0  0  0  0  0  0  0  0  0  0  0
    9.7500    1.2990    0.0000 C   0  0  0  0  0  0  0  0  0  0  0  0
    8.2500    1.2990    0.0000 C   0  0  0  0  0  0  0  0  0  0  0  0
    7.5000   -0.0000    0.0000 N   0  0  0  0  0  0  0  0  0  0  0  0
    8.2500   -1.2990    0.0000 C   0  0  0  0  0  0  0  0  0  0  0  0
    9.7500   -1.2990    0.0000 C   0  0  0  0  0  0  0  0  0  0  0  0
   10.5000   -2.5981    0.0000 C   0  0  0  0  0  0  0  0  0  0  0  0
    6.0000    0.0000    0.0000 C   0  0  0  0  0  0  0  0  0  0  0  0
    5.2500   -1.2990    0.0000 C   0  0  0  0  0  0  0  0  0  0  0  0
    6.0000   -2.5981    0.0000 C   0  0  0  0  0  0  0  0  0  0  0  0
    3.7500   -1.2990    0.0000 N   0  0  0  0  0  0  0  0  0  0  0  0
    3.0000    0.0000    0.0000 C   0  0  0  0  0  0  0  0  0  0  0  0
    3.7500    1.2990    0.0000 O   0  0  0  0  0  0  0  0  0  0  0  0
    1.5000    0.0000    0.0000 C   0  0  0  0  0  0  0  0  0  0  0  0
    0.7500   -1.2990    0.0000 C   0  0  0  0  0  0  0  0  0  0  0  0
   -0.7500   -1.2990    0.0000 C   0  0  0  0  0  0  0  0  0  0  0  0
   -1.5000    0.0000    0.0000 C   0  0  0  0  0  0  0  0  0  0  0  0
   -3.0000    0.0000    0.0000 C   0  0  0  0  0  0  0  0  0  0  0  0
   -3.8817   -1.2135    0.0000 N   0  0  0  0  0  0  0  0  0  0  0  0
   -5.3083   -0.7500    0.0000 O   0  0  0  0  0  0  0  0  0  0  0  0
   -5.3083    0.7500    0.0000 C   0  0  0  0  0  0  0  0  0  0  0  0
   -6.5218    1.6317    0.0000 C   0  0  0  0  0  0  0  0  0  0  0  0
   -7.7353    2.5134    0.0000 F   0  0  0  0  0  0  0  0  0  0  0  0
   -5.6401    2.8452    0.0000 F   0  0  0  0  0  0  0  0  0  0  0  0
   -7.4035    0.4182    0.0000 F   0  0  0  0  0  0  0  0  0  0  0  0
   -3.8817    1.2135    0.0000 N   0  0  0  0  0  0  0  0  0  0  0  0
   -0.7500    1.2990    0.0000 C   0  0  0  0  0  0  0  0  0  0  0  0
    0.7500    1.2990    0.0000 C   0  0  0  0  0  0  0  0  0  0  0  0
  1  2  1  0
  2  3  1  0
  3  4  1  0
  4  5  1  0
  5  6  1  0
  6  7  1  0
  4  8  1  0
  8  9  1  0
  9 10  1  0
  9 11  1  0
 11 12  1  0
 12 13  2  0
 12 14  1  0
 14 15  2  0
 15 16  1  0
 16 17  2  0
 17 18  1  0
 18 19  2  0
 19 20  1  0
 20 21  1  0
 21 22  1  0
 22 23  1  0
 22 24  1  0
 22 25  1  0
 21 26  2  0
 17 27  1  0
 27 28  2  0
 28 14  1  0
 26 18  1  0
M  END
>  <molecule_chembl_id>  (122) 
CHEMBL3692671

>  <canonical_smiles>  (122) 
CCCN(CCC)CC(C)NC(=O)c1ccc(-c2noc(C(F)(F)F)n2)cc1

>  <pchembl_value_mean>  (122) 
5.03

>  <document_chembl_id>  (122) 
CHEMBL4680373

$$$$

     RDKit          2D

 27 29  0  0  0  0  0  0  0  0999 V2000
    3.7500    1.2990    0.0000 O   0  0  0  0  0  0  0  0  0  0  0  0
    3.0000    0.0000    0.0000 C   0  0  0  0  0  0  0  0  0  0  0  0
    3.7500   -1.2990    0.0000 N   0  0  0  0  0  0  0  0  0  0  0  0
    5.2500   -1.2990    0.0000 O   0  0  0  0  0  0  0  0  0  0  0  0
    1.5000    0.0000    0.0000 C   0  0  0  0  0  0  0  0  0  0  0  0
    0.7500   -1.2990    0.0000 C   0  0  0  0  0  0  0  0  0  0  0  0
   -0.7500   -1.2990    0.0000 C   0  0  0  0  0  0  0  0  0  0  0  0
   -1.5000    0.0000    0.0000 C   0  0  0  0  0  0  0  0  0  0  0  0
   -3.0000    0.0000    0.0000 C   0  0  0  0  0  0  0  0  0  0  0  0
   -3.7500    1.2990    0.0000 N   0  0  0  0  0  0  0  0  0  0  0  0
   -5.2500    1.2990    0.0000 C   0  0  0  0  0  0  0  0  0  0  0  0
   -6.0000    2.5981    0.0000 C   0  0  0  0  0  0  0  0  0  0  0  0
   -7.4918    2.7549    0.0000 N   0  0  0  0  0  0  0  0  0  0  0  0
   -7.8037    4.2221    0.0000 C   0  0  0  0  0  0  0  0  0  0  0  0
   -9.1740    4.8322    0.0000 C   0  0  0  0  0  0  0  0  0  0  0  0
   -9.3308    6.3240    0.0000 C   0  0  0  0  0  0  0  0  0  0  0  0
  -10.7011    6.9341    0.0000 C   0  0  0  0  0  0  0  0  0  0  0  0
  -11.9146    6.0524    0.0000 C   0  0  0  0  0  0  0  0  0  0  0  0
  -13.2849    6.6625    0.0000 N   0  0  0  0  0  4  0  0  0  0  0  0
  -14.4984    5.7808    0.0000 O   0  0  0  0  0  0  0  0  0  0  0  0
  -13.4417    8.1543    0.0000 O   0  0  0  0  0  1  0  0  0  0  0  0
  -11.7578    4.5606    0.0000 C   0  0  0  0  0  0  0  0  0  0  0  0
  -10.3875    3.9505    0.0000 C   0  0  0  0  0  0  0  0  0  0  0  0
   -6.5046    4.9721    0.0000 N   0  0  0  0  0  0  0  0  0  0  0  0
   -5.3899    3.9684    0.0000 O   0  0  0  0  0  0  0  0  0  0  0  0
   -0.7500    1.2990    0.0000 C   0  0  0  0  0  0  0  0  0  0  0  0
    0.7500    1.2990    0.0000 C   0  0  0  0  0  0  0  0  0  0  0  0
  1  2  2  0
  2  3  1  0
  3  4  1  0
  2  5  1  0
  5  6  2  0
  6  7  1  0
  7  8  2  0
  8  9  1  0
  9 10  1  0
 10 11  1  0
 11 12  1  0
 12 13  2  0
 13 14  1  0
 14 15  1  0
 15 16  2  0
 16 17  1  0
 17 18  2  0
 18 19  1  0
 19 20  2  0
 19 21  1  0
 18 22  1  0
 22 23  2  0
 14 24  2  0
 24 25  1  0
  8 26  1  0
 26 27  2  0
 27  5  1  0
 25 12  1  0
 23 15  1  0
M  CHG  2  19   1  21  -1
M  END
>  <molecule_chembl_id>  (123) 
CHEMBL3421752

>  <canonical_smiles>  (123) 
O=C(NO)c1ccc(CNCc2nc(-c3ccc([N+](=O)[O-])cc3)no2)cc1

>  <pchembl_value_mean>  (123) 
5.04

>  <document_chembl_id>  (123) 
CHEMBL3421568

$$$$

     RDKit          2D

 37 40  0  0  0  0  0  0  0  0999 V2000
    3.7500   -1.2990    0.0000 C   0  0  0  0  0  0  0  0  0  0  0  0
    3.0000    0.0000    0.0000 O   0  0  0  0  0  0  0  0  0  0  0  0
    1.5000    0.0000    0.0000 C   0  0  0  0  0  0  0  0  0  0  0  0
    0.7500   -1.2990    0.0000 C   0  0  0  0  0  0  0  0  0  0  0  0
   -0.7500   -1.2990    0.0000 C   0  0  0  0  0  0  0  0  0  0  0  0
   -1.5000    0.0000    0.0000 C   0  0  0  0  0  0  0  0  0  0  0  0
   -3.0000    0.0000    0.0000 S   0  0  0  0  0  0  0  0  0  0  0  0
   -3.0000    1.5000    0.0000 O   0  0  0  0  0  0  0  0  0  0  0  0
   -3.0000   -1.5000    0.0000 O   0  0  0  0  0  0  0  0  0  0  0  0
   -4.5000    0.0000    0.0000 N   0  0  0  0  0  0  0  0  0  0  0  0
   -5.2500   -1.2990    0.0000 C   0  0  0  0  0  0  0  0  0  0  0  0
   -6.7500   -1.2990    0.0000 C   0  0  0  0  0  0  0  0  0  0  0  0
   -7.5000   -2.5981    0.0000 C   0  0  0  0  0  0  0  0  0  0  0  0
   -6.7500   -3.8971    0.0000 C   0  0  0  0  0  0  0  0  0  0  0  0
   -5.2500   -3.8971    0.0000 C   0  0  0  0  0  0  0  0  0  0  0  0
   -4.5000   -2.5981    0.0000 C   0  0  0  0  0  0  0  0  0  0  0  0
   -3.0000   -2.5981    0.0000 C   0  0  0  0  0  0  0  0  0  0  0  0
   -2.2500   -3.8971    0.0000 C   0  0  0  0  0  0  0  0  0  0  0  0
   -0.7500   -3.8971    0.0000 C   0  0  0  0  0  0  0  0  0  0  0  0
   -0.0000   -5.1962    0.0000 C   0  0  0  0  0  0  0  0  0  0  0  0
    1.5000   -5.1962    0.0000 C   0  0  0  0  0  0  0  0  0  0  0  0
    2.2500   -3.8971    0.0000 C   0  0  0  0  0  0  0  0  0  0  0  0
    3.7500   -3.8971    0.0000 C   0  0  0  0  0  0  0  0  0  0  0  0
    4.5000   -2.5981    0.0000 O   0  0  0  0  0  0  0  0  0  0  0  0
    4.5000   -5.1962    0.0000 N   0  0  0  0  0  0  0  0  0  0  0  0
    6.0000   -5.1962    0.0000 C   0  0  0  0  0  0  0  0  0  0  0  0
    6.7500   -6.4952    0.0000 C   0  0  0  0  0  0  0  0  0  0  0  0
    8.2500   -6.4952    0.0000 C   0  0  0  0  0  0  0  0  0  0  0  0
    9.0000   -7.7942    0.0000 F   0  0  0  0  0  0  0  0  0  0  0  0
    9.0000   -5.1962    0.0000 C   0  0  0  0  0  0  0  0  0  0  0  0
    8.2500   -3.8971    0.0000 C   0  0  0  0  0  0  0  0  0  0  0  0
    6.7500   -3.8971    0.0000 C   0  0  0  0  0  0  0  0  0  0  0  0
    6.0000   -2.5981    0.0000 N   0  0  0  0  0  0  0  0  0  0  0  0
    1.5000   -2.5981    0.0000 C   0  0  0  0  0  0  0  0  0  0  0  0
   -0.0000   -2.5981    0.0000 C   0  0  0  0  0  0  0  0  0  0  0  0
   -0.7500    1.2990    0.0000 C   0  0  0  0  0  0  0  0  0  0  0  0
    0.7500    1.2990    0.0000 C   0  0  0  0  0  0  0  0  0  0  0  0
  1  2  1  0
  2  3  1  0
  3  4  2  0
  4  5  1  0
  5  6  2  0
  6  7  1  0
  7  8  2  0
  7  9  2  0
  7 10  1  0
 10 11  1  0
 11 12  2  0
 12 13  1  0
 13 14  2  0
 14 15  1  0
 15 16  2  0
 16 17  1  0
 17 18  1  0
 18 19  1  0
 19 20  2  0
 20 21  1  0
 21 22  2  0
 22 23  1  0
 23 24  2  0
 23 25  1  0
 25 26  1  0
 26 27  2  0
 27 28  1  0
 28 29  1  0
 28 30  2  0
 30 31  1  0
 31 32  2  0
 32 33  1  0
 22 34  1  0
 34 35  2  0
  6 36  1  0
 36 37  2  0
 37  3  1  0
 16 11  1  0
 35 19  1  0
 32 26  1  0
M  END
>  <molecule_chembl_id>  (124) 
CHEMBL4757836

>  <canonical_smiles>  (124) 
COc1ccc(S(=O)(=O)Nc2ccccc2CCc2ccc(C(=O)Nc3cc(F)ccc3N)cc2)cc1

>  <pchembl_value_mean>  (124) 
5.04

>  <document_chembl_id>  (124) 
CHEMBL4680226

$$$$

     RDKit          2D

 20 20  0  0  0  0  0  0  0  0999 V2000
    7.5000   -5.1962    0.0000 O   0  0  0  0  0  0  0  0  0  0  0  0
    8.2500   -3.8971    0.0000 C   0  0  0  0  0  0  0  0  0  0  0  0
    7.5000   -2.5981    0.0000 C   0  0  0  0  0  0  0  0  0  0  0  0
    6.0000   -2.5981    0.0000 N   0  0  0  0  0  0  0  0  0  0  0  0
    5.2500   -1.2990    0.0000 C   0  0  0  0  0  0  0  0  0  0  0  0
    6.0000    0.0000    0.0000 O   0  0  0  0  0  0  0  0  0  0  0  0
    3.7500   -1.2990    0.0000 C   0  0  0  0  0  0  0  0  0  0  0  0
    3.0000    0.0000    0.0000 C   0  0  0  0  0  0  0  0  0  0  0  0
    1.5000    0.0000    0.0000 C   0  0  0  0  0  0  0  0  0  0  0  0
    0.7500   -1.2990    0.0000 C   0  0  0  0  0  0  0  0  0  0  0  0
   -0.7500   -1.2990    0.0000 C   0  0  0  0  0  0  0  0  0  0  0  0
   -1.5000    0.0000    0.0000 C   0  0  0  0  0  0  0  0  0  0  0  0
   -3.0000    0.0000    0.0000 O   0  0  0  0  0  0  0  0  0  0  0  0
   -0.7500    1.2990    0.0000 C   0  0  0  0  0  0  0  0  0  0  0  0
   -1.5000    2.5981    0.0000 Br  0  0  0  0  0  0  0  0  0  0  0  0
    0.7500    1.2990    0.0000 C   0  0  0  0  0  0  0  0  0  0  0  0
    3.0000   -2.5981    0.0000 N   0  0  0  0  0  0  0  0  0  0  0  0
    3.7500   -3.8971    0.0000 O   0  0  0  0  0  0  0  0  0  0  0  0
    9.7500   -3.8971    0.0000 N   0  0  0  0  0  0  0  0  0  0  0  0
   10.5000   -5.1962    0.0000 O   0  0  0  0  0  0  0  0  0  0  0  0
  1  2  2  0
  2  3  1  0
  3  4  1  0
  4  5  1  0
  5  6  2  0
  5  7  1  0
  7  8  1  0
  8  9  1  0
  9 10  2  0
 10 11  1  0
 11 12  2  0
 12 13  1  0
 12 14  1  0
 14 15  1  0
 14 16  2  0
  7 17  2  3
 17 18  1  0
  2 19  1  0
 19 20  1  0
 16  9  1  0
M  END
>  <molecule_chembl_id>  (125) 
CHEMBL4753670

>  <canonical_smiles>  (125) 
O=C(CNC(=O)C(Cc1ccc(O)c(Br)c1)=NO)NO

>  <pchembl_value_mean>  (125) 
5.04

>  <document_chembl_id>  (125) 
CHEMBL4673384

$$$$

     RDKit          2D

 26 28  0  0  0  0  0  0  0  0999 V2000
   -1.6131    3.4430    0.0000 C   0  0  0  0  0  0  0  0  0  0  0  0
   -0.1459    3.7548    0.0000 C   0  0  0  0  0  0  0  0  0  0  0  0
    0.3177    5.1814    0.0000 C   0  0  0  0  0  0  0  0  0  0  0  0
   -0.6860    6.2961    0.0000 O   0  0  0  0  0  0  0  0  0  0  0  0
    1.7849    5.4933    0.0000 C   0  0  0  0  0  0  0  0  0  0  0  0
    2.2484    6.9199    0.0000 O   0  0  0  0  0  0  0  0  0  0  0  0
    2.7886    4.3786    0.0000 C   0  0  0  0  0  0  0  0  0  0  0  0
    4.2558    4.6904    0.0000 O   0  0  0  0  0  0  0  0  0  0  0  0
    2.3250    2.9520    0.0000 C   0  0  0  0  0  0  0  0  0  0  0  0
    3.3287    1.8373    0.0000 C   0  0  0  0  0  0  0  0  0  0  0  0
    4.7960    2.1491    0.0000 O   0  0  0  0  0  0  0  0  0  0  0  0
    0.8578    2.6401    0.0000 C   0  0  0  0  0  0  0  0  0  0  0  0
    0.3943    1.2135    0.0000 C   0  0  0  0  0  0  0  0  0  0  0  0
    1.2760    0.0000    0.0000 C   0  0  0  0  0  0  0  0  0  0  0  0
    0.3943   -1.2135    0.0000 C   0  0  0  0  0  0  0  0  0  0  0  0
    0.7062   -2.6807    0.0000 C   0  0  0  0  0  0  0  0  0  0  0  0
    2.1328   -3.1443    0.0000 C   0  0  0  0  0  0  0  0  0  0  0  0
    2.4446   -4.6115    0.0000 O   0  0  0  0  0  0  0  0  0  0  0  0
   -0.4086   -3.6844    0.0000 C   0  0  0  0  0  0  0  0  0  0  0  0
   -0.0967   -5.1517    0.0000 C   0  0  0  0  0  0  0  0  0  0  0  0
   -1.8351   -3.2209    0.0000 C   0  0  0  0  0  0  0  0  0  0  0  0
   -2.9499   -4.2246    0.0000 O   0  0  0  0  0  0  0  0  0  0  0  0
   -2.1470   -1.7537    0.0000 C   0  0  0  0  0  0  0  0  0  0  0  0
   -3.5736   -1.2902    0.0000 O   0  0  0  0  0  0  0  0  0  0  0  0
   -1.0323   -0.7500    0.0000 C   0  0  0  0  0  0  0  0  0  0  0  0
   -1.0323    0.7500    0.0000 O   0  0  0  0  0  0  0  0  0  0  0  0
  1  2  1  0
  2  3  2  0
  3  4  1  0
  3  5  1  0
  5  6  1  0
  5  7  2  0
  7  8  1  0
  7  9  1  0
  9 10  1  0
 10 11  2  0
  9 12  2  0
 12 13  1  0
 13 14  2  0
 14 15  1  0
 15 16  2  0
 16 17  1  0
 17 18  2  0
 16 19  1  0
 19 20  1  0
 19 21  2  0
 21 22  1  0
 21 23  1  0
 23 24  1  0
 23 25  2  0
 25 26  1  0
 12  2  1  0
 26 13  1  0
 25 15  1  0
M  END
>  <molecule_chembl_id>  (126) 
CHEMBL3104855

>  <canonical_smiles>  (126) 
Cc1c(O)c(O)c(O)c(C=O)c1-c1cc2c(C=O)c(C)c(O)c(O)c2o1

>  <pchembl_value_mean>  (126) 
5.04

>  <document_chembl_id>  (126) 
CHEMBL3102702

$$$$

     RDKit          2D

 23 25  0  0  0  0  0  0  0  0999 V2000
    3.7500    1.2990    0.0000 O   0  0  0  0  0  0  0  0  0  0  0  0
    3.0000    0.0000    0.0000 C   0  0  0  0  0  0  0  0  0  0  0  0
    3.7500   -1.2990    0.0000 N   0  0  0  0  0  0  0  0  0  0  0  0
    5.2500   -1.2990    0.0000 O   0  0  0  0  0  0  0  0  0  0  0  0
    1.5000    0.0000    0.0000 C   0  0  0  0  0  0  0  0  0  0  0  0
    0.7500   -1.2990    0.0000 C   0  0  0  0  0  0  0  0  0  0  0  0
   -0.7500   -1.2990    0.0000 C   0  0  0  0  0  0  0  0  0  0  0  0
   -1.5000   -2.5981    0.0000 F   0  0  0  0  0  0  0  0  0  0  0  0
   -1.5000    0.0000    0.0000 C   0  0  0  0  0  0  0  0  0  0  0  0
   -3.0000    0.0000    0.0000 C   0  0  0  0  0  0  0  0  0  0  0  0
   -3.7500    1.2990    0.0000 N   0  0  0  0  0  0  0  0  0  0  0  0
   -3.1399    2.6694    0.0000 N   0  0  0  0  0  0  0  0  0  0  0  0
   -4.2546    3.6731    0.0000 N   0  0  0  0  0  0  0  0  0  0  0  0
   -5.5537    2.9231    0.0000 N   0  0  0  0  0  0  0  0  0  0  0  0
   -5.2418    1.4558    0.0000 C   0  0  0  0  0  0  0  0  0  0  0  0
   -6.2455    0.3411    0.0000 C   0  0  0  0  0  0  0  0  0  0  0  0
   -7.7373    0.4979    0.0000 C   0  0  0  0  0  0  0  0  0  0  0  0
   -8.3474   -0.8724    0.0000 C   0  0  0  0  0  0  0  0  0  0  0  0
   -7.2326   -1.8761    0.0000 C   0  0  0  0  0  0  0  0  0  0  0  0
   -5.9336   -1.1261    0.0000 S   0  0  0  0  0  0  0  0  0  0  0  0
   -0.7500    1.2990    0.0000 C   0  0  0  0  0  0  0  0  0  0  0  0
   -1.5000    2.5981    0.0000 F   0  0  0  0  0  0  0  0  0  0  0  0
    0.7500    1.2990    0.0000 C   0  0  0  0  0  0  0  0  0  0  0  0
  1  2  2  0
  2  3  1  0
  3  4  1  0
  2  5  1  0
  5  6  2  0
  6  7  1  0
  7  8  1  0
  7  9  2  0
  9 10  1  0
 10 11  1  0
 11 12  1  0
 12 13  2  0
 13 14  1  0
 14 15  2  0
 15 16  1  0
 16 17  2  0
 17 18  1  0
 18 19  2  0
 19 20  1  0
  9 21  1  0
 21 22  1  0
 21 23  2  0
 23  5  1  0
 15 11  1  0
 20 16  1  0
M  END
>  <molecule_chembl_id>  (127) 
CHEMBL4862563

>  <canonical_smiles>  (127) 
O=C(NO)c1cc(F)c(Cn2nnnc2-c2cccs2)c(F)c1

>  <pchembl_value_mean>  (127) 
5.04

>  <document_chembl_id>  (127) 
CHEMBL4825781

$$$$

     RDKit          2D

 21 22  0  0  0  0  0  0  0  0999 V2000
    3.7500    1.2990    0.0000 O   0  0  0  0  0  0  0  0  0  0  0  0
    3.0000    0.0000    0.0000 C   0  0  0  0  0  0  0  0  0  0  0  0
    3.7500   -1.2990    0.0000 N   0  0  0  0  0  0  0  0  0  0  0  0
    5.2500   -1.2990    0.0000 O   0  0  0  0  0  0  0  0  0  0  0  0
    1.5000    0.0000    0.0000 C   0  0  0  0  0  0  0  0  0  0  0  0
    0.7500   -1.2990    0.0000 C   0  0  0  0  0  0  0  0  0  0  0  0
   -0.7500   -1.2990    0.0000 C   0  0  0  0  0  0  0  0  0  0  0  0
   -1.5000    0.0000    0.0000 C   0  0  0  0  0  0  0  0  0  0  0  0
   -0.7500    1.2990    0.0000 C   0  0  0  0  0  0  0  0  0  0  0  0
   -1.5000    2.5981    0.0000 C   0  0  0  0  0  0  0  0  0  0  0  0
   -3.0000    2.5981    0.0000 O   0  0  0  0  0  0  0  0  0  0  0  0
   -0.7500    3.8971    0.0000 N   0  0  0  0  0  0  0  0  0  0  0  0
   -1.5000    5.1962    0.0000 C   0  0  0  0  0  0  0  0  0  0  0  0
   -0.7500    6.4952    0.0000 C   0  0  0  0  0  0  0  0  0  0  0  0
   -1.5000    7.7942    0.0000 C   0  0  0  0  0  0  0  0  0  0  0  0
   -0.7500    9.0933    0.0000 C   0  0  0  0  0  0  0  0  0  0  0  0
   -1.5000   10.3923    0.0000 C   0  0  0  0  0  0  0  0  0  0  0  0
   -3.0000   10.3923    0.0000 C   0  0  0  0  0  0  0  0  0  0  0  0
   -3.7500    9.0933    0.0000 C   0  0  0  0  0  0  0  0  0  0  0  0
   -3.0000    7.7942    0.0000 C   0  0  0  0  0  0  0  0  0  0  0  0
    0.7500    1.2990    0.0000 C   0  0  0  0  0  0  0  0  0  0  0  0
  1  2  2  0
  2  3  1  0
  3  4  1  0
  2  5  1  0
  5  6  2  0
  6  7  1  0
  7  8  2  0
  8  9  1  0
  9 10  1  0
 10 11  2  0
 10 12  1  0
 12 13  1  0
 13 14  1  0
 14 15  1  0
 15 16  2  0
 16 17  1  0
 17 18  2  0
 18 19  1  0
 19 20  2  0
  9 21  2  0
 21  5  1  0
 20 15  1  0
M  END
>  <molecule_chembl_id>  (128) 
CHEMBL2381517

>  <canonical_smiles>  (128) 
O=C(NO)c1cccc(C(=O)NCCc2ccccc2)c1

>  <pchembl_value_mean>  (128) 
5.05

>  <document_chembl_id>  (128) 
CHEMBL2380312

$$$$

     RDKit          2D

 24 26  0  0  0  0  0  0  0  0999 V2000
   -4.3786   -5.1199    0.0000 C   0  0  0  0  0  0  0  0  0  0  0  0
   -2.9520   -4.6564    0.0000 N   0  0  0  0  0  0  0  0  0  0  0  0
   -1.8373   -5.6601    0.0000 C   0  0  0  0  0  0  0  0  0  0  0  0
   -2.6401   -3.1891    0.0000 C   0  0  0  0  0  0  0  0  0  0  0  0
   -1.2135   -2.7256    0.0000 C   0  0  0  0  0  0  0  0  0  0  0  0
   -0.0000   -3.6073    0.0000 C   0  0  0  0  0  0  0  0  0  0  0  0
    1.2135   -2.7256    0.0000 N   0  0  0  0  0  0  0  0  0  0  0  0
    2.6401   -3.1891    0.0000 C   0  0  0  0  0  0  0  0  0  0  0  0
    2.9520   -4.6564    0.0000 C   0  0  0  0  0  0  0  0  0  0  0  0
    1.8373   -5.6601    0.0000 C   0  0  0  0  0  0  0  0  0  0  0  0
    2.1491   -7.1273    0.0000 C   0  0  0  0  0  0  0  0  0  0  0  0
    3.5757   -7.5908    0.0000 C   0  0  0  0  0  0  0  0  0  0  0  0
    3.8876   -9.0580    0.0000 C   0  0  0  0  0  0  0  0  0  0  0  0
    5.3142   -9.5216    0.0000 O   0  0  0  0  0  0  0  0  0  0  0  0
    2.7729  -10.0617    0.0000 N   0  0  0  0  0  0  0  0  0  0  0  0
    3.0847  -11.5290    0.0000 O   0  0  0  0  0  0  0  0  0  0  0  0
    4.6904   -6.5871    0.0000 C   0  0  0  0  0  0  0  0  0  0  0  0
    4.3786   -5.1199    0.0000 C   0  0  0  0  0  0  0  0  0  0  0  0
    0.7500   -1.2990    0.0000 C   0  0  0  0  0  0  0  0  0  0  0  0
    1.5000    0.0000    0.0000 C   0  0  0  0  0  0  0  0  0  0  0  0
    0.7500    1.2990    0.0000 C   0  0  0  0  0  0  0  0  0  0  0  0
   -0.7500    1.2990    0.0000 C   0  0  0  0  0  0  0  0  0  0  0  0
   -1.5000    0.0000    0.0000 C   0  0  0  0  0  0  0  0  0  0  0  0
   -0.7500   -1.2990    0.0000 C   0  0  0  0  0  0  0  0  0  0  0  0
  1  2  1  0
  2  3  1  0
  2  4  1  0
  4  5  1  0
  5  6  2  0
  6  7  1  0
  7  8  1  0
  8  9  1  0
  9 10  2  0
 10 11  1  0
 11 12  2  0
 12 13  1  0
 13 14  2  0
 13 15  1  0
 15 16  1  0
 12 17  1  0
 17 18  2  0
  7 19  1  0
 19 20  2  0
 20 21  1  0
 21 22  2  0
 22 23  1  0
 23 24  2  0
 24  5  1  0
 18  9  1  0
 24 19  1  0
M  END
>  <molecule_chembl_id>  (129) 
CHEMBL4066920

>  <canonical_smiles>  (129) 
CN(C)Cc1cn(Cc2ccc(C(=O)NO)cc2)c2ccccc12

>  <pchembl_value_mean>  (129) 
5.055

>  <document_chembl_id>  (129) 
CHEMBL3994606

$$$$

     RDKit          2D

 29 32  0  0  0  0  0  0  0  0999 V2000
    3.0000    0.0000    0.0000 C   0  0  0  0  0  0  0  0  0  0  0  0
    1.5000    0.0000    0.0000 C   0  0  0  0  0  0  0  0  0  0  0  0
    0.7500   -1.2990    0.0000 C   0  0  0  0  0  0  0  0  0  0  0  0
   -0.7500   -1.2990    0.0000 C   0  0  0  0  0  0  0  0  0  0  0  0
   -1.5000    0.0000    0.0000 C   0  0  0  0  0  0  0  0  0  0  0  0
   -3.0000    0.0000    0.0000 C   0  0  0  0  0  0  0  0  0  0  0  0
   -3.8817   -1.2135    0.0000 N   0  0  0  0  0  0  0  0  0  0  0  0
   -5.3083   -0.7500    0.0000 N   0  0  0  0  0  0  0  0  0  0  0  0
   -6.5218   -1.6317    0.0000 C   0  0  0  0  0  0  0  0  0  0  0  0
   -7.8921   -1.0216    0.0000 C   0  0  0  0  0  0  0  0  0  0  0  0
   -9.1056   -1.9033    0.0000 C   0  0  0  0  0  0  0  0  0  0  0  0
   -8.9488   -3.3950    0.0000 C   0  0  0  0  0  0  0  0  0  0  0  0
   -7.5785   -4.0051    0.0000 C   0  0  0  0  0  0  0  0  0  0  0  0
   -6.3650   -3.1235    0.0000 C   0  0  0  0  0  0  0  0  0  0  0  0
   -5.3083    0.7500    0.0000 C   0  0  0  0  0  0  0  0  0  0  0  0
   -3.8817    1.2135    0.0000 C   0  0  0  0  0  0  0  0  0  0  0  0
   -3.4182    2.6401    0.0000 C   0  0  0  0  0  0  0  0  0  0  0  0
   -4.4218    3.7548    0.0000 C   0  0  0  0  0  0  0  0  0  0  0  0
   -3.9583    5.1814    0.0000 C   0  0  0  0  0  0  0  0  0  0  0  0
   -2.4911    5.4933    0.0000 O   0  0  0  0  0  0  0  0  0  0  0  0
   -4.9620    6.2961    0.0000 N   0  0  0  0  0  0  0  0  0  0  0  0
   -4.4985    7.7227    0.0000 C   0  0  0  0  0  0  0  0  0  0  0  0
   -3.0313    8.0346    0.0000 C   0  0  0  0  0  0  0  0  0  0  0  0
   -2.5677    9.4612    0.0000 C   0  0  0  0  0  0  0  0  0  0  0  0
   -3.5714   10.5759    0.0000 C   0  0  0  0  0  0  0  0  0  0  0  0
   -5.0387   10.2640    0.0000 C   0  0  0  0  0  0  0  0  0  0  0  0
   -5.5022    8.8374    0.0000 C   0  0  0  0  0  0  0  0  0  0  0  0
   -0.7500    1.2990    0.0000 C   0  0  0  0  0  0  0  0  0  0  0  0
    0.7500    1.2990    0.0000 C   0  0  0  0  0  0  0  0  0  0  0  0
  1  2  1  0
  2  3  2  0
  3  4  1  0
  4  5  2  0
  5  6  1  0
  6  7  2  0
  7  8  1  0
  8  9  1  0
  9 10  2  0
 10 11  1  0
 11 12  2  0
 12 13  1  0
 13 14  2  0
  8 15  1  0
 15 16  2  0
 16 17  1  0
 17 18  2  3
 18 19  1  0
 19 20  2  0
 19 21  1  0
 21 22  1  0
 22 23  2  0
 23 24  1  0
 24 25  2  0
 25 26  1  0
 26 27  2  0
  5 28  1  0
 28 29  2  0
 29  2  1  0
 16  6  1  0
 27 22  1  0
 14  9  1  0
M  END
>  <molecule_chembl_id>  (130) 
CHEMBL2047605

>  <canonical_smiles>  (130) 
Cc1ccc(-c2nn(-c3ccccc3)cc2C=CC(=O)Nc2ccccc2)cc1

>  <pchembl_value_mean>  (130) 
5.06

>  <document_chembl_id>  (130) 
CHEMBL2046430

$$$$

     RDKit          2D

 32 35  0  0  0  0  0  0  0  0999 V2000
   13.6564   -7.7341    0.0000 O   0  0  0  0  0  0  0  0  0  0  0  0
   12.1940   -8.0679    0.0000 C   0  0  0  0  0  0  0  0  0  0  0  0
   11.7518   -9.5013    0.0000 N   0  0  0  0  0  0  0  0  0  0  0  0
   12.7721  -10.6008    0.0000 O   0  0  0  0  0  0  0  0  0  0  0  0
   11.1737   -6.9683    0.0000 C   0  0  0  0  0  0  0  0  0  0  0  0
    9.7113   -7.3021    0.0000 C   0  0  0  0  0  0  0  0  0  0  0  0
    8.6911   -6.2025    0.0000 C   0  0  0  0  0  0  0  0  0  0  0  0
    9.1332   -4.7692    0.0000 C   0  0  0  0  0  0  0  0  0  0  0  0
    8.1129   -3.6696    0.0000 C   0  0  0  0  0  0  0  0  0  0  0  0
    8.5551   -2.2362    0.0000 O   0  0  0  0  0  0  0  0  0  0  0  0
    6.6505   -4.0034    0.0000 N   0  0  0  0  0  0  0  0  0  0  0  0
    5.6303   -2.9038    0.0000 C   0  0  0  0  0  0  0  0  0  0  0  0
    4.1679   -3.2376    0.0000 C   0  0  0  0  0  0  0  0  0  0  0  0
    3.1476   -2.1380    0.0000 C   0  0  0  0  0  0  0  0  0  0  0  0
    1.6852   -2.4718    0.0000 N   0  0  0  0  0  0  0  0  0  0  0  0
    0.7500   -1.2990    0.0000 C   0  0  0  0  0  0  0  0  0  0  0  0
    1.5000    0.0000    0.0000 C   0  0  0  0  0  0  0  0  0  0  0  0
    0.7500    1.2990    0.0000 C   0  0  0  0  0  0  0  0  0  0  0  0
   -0.7500    1.2990    0.0000 C   0  0  0  0  0  0  0  0  0  0  0  0
   -1.5000    0.0000    0.0000 C   0  0  0  0  0  0  0  0  0  0  0  0
   -0.7500   -1.2990    0.0000 C   0  0  0  0  0  0  0  0  0  0  0  0
   -1.6852   -2.4718    0.0000 C   0  0  0  0  0  0  0  0  0  0  0  0
   -1.3515   -3.9342    0.0000 C   0  0  0  0  0  0  0  0  0  0  0  0
    0.0000   -4.5850    0.0000 C   0  0  0  0  0  0  0  0  0  0  0  0
   -0.1121   -6.0808    0.0000 C   0  0  0  0  0  0  0  0  0  0  0  0
    1.1273   -6.9258    0.0000 C   0  0  0  0  0  0  0  0  0  0  0  0
    2.4787   -6.2750    0.0000 C   0  0  0  0  0  0  0  0  0  0  0  0
    3.7181   -7.1199    0.0000 Cl  0  0  0  0  0  0  0  0  0  0  0  0
    2.5908   -4.7792    0.0000 C   0  0  0  0  0  0  0  0  0  0  0  0
    1.3515   -3.9342    0.0000 C   0  0  0  0  0  0  0  0  0  0  0  0
   10.5956   -4.4354    0.0000 C   0  0  0  0  0  0  0  0  0  0  0  0
   11.6158   -5.5350    0.0000 C   0  0  0  0  0  0  0  0  0  0  0  0
  1  2  2  0
  2  3  1  0
  3  4  1  0
  2  5  1  0
  5  6  2  0
  6  7  1  0
  7  8  2  0
  8  9  1  0
  9 10  2  0
  9 11  1  0
 11 12  1  0
 12 13  1  0
 13 14  1  0
 14 15  1  0
 15 16  1  0
 16 17  2  0
 17 18  1  0
 18 19  2  0
 19 20  1  0
 20 21  2  0
 21 22  1  0
 22 23  1  0
 23 24  1  0
 24 25  2  0
 25 26  1  0
 26 27  2  0
 27 28  1  0
 27 29  1  0
 29 30  2  0
  8 31  1  0
 31 32  2  0
 32  5  1  0
 30 15  1  0
 21 16  1  0
 30 24  1  0
M  END
>  <molecule_chembl_id>  (131) 
CHEMBL4640986

>  <canonical_smiles>  (131) 
O=C(NO)c1ccc(C(=O)NCCCN2c3ccccc3CCc3ccc(Cl)cc32)cc1

>  <pchembl_value_mean>  (131) 
5.06

>  <document_chembl_id>  (131) 
CHEMBL4602647

$$$$

     RDKit          2D

 24 25  0  0  0  0  0  0  0  0999 V2000
   10.4688  -10.2562    0.0000 O   0  0  0  0  0  0  0  0  0  0  0  0
    9.2553  -11.1379    0.0000 C   0  0  0  0  0  0  0  0  0  0  0  0
    7.8850  -10.5278    0.0000 C   0  0  0  0  0  0  0  0  0  0  0  0
    7.7282   -9.0360    0.0000 C   0  0  0  0  0  0  0  0  0  0  0  0
    6.3579   -8.4259    0.0000 C   0  0  0  0  0  0  0  0  0  0  0  0
    6.2011   -6.9341    0.0000 C   0  0  0  0  0  0  0  0  0  0  0  0
    4.8308   -6.3240    0.0000 C   0  0  0  0  0  0  0  0  0  0  0  0
    4.6740   -4.8322    0.0000 C   0  0  0  0  0  0  0  0  0  0  0  0
    3.3037   -4.2221    0.0000 C   0  0  0  0  0  0  0  0  0  0  0  0
    2.9918   -2.7549    0.0000 N   0  0  0  0  0  0  0  0  0  0  0  0
    1.5000   -2.5981    0.0000 C   0  0  0  0  0  0  0  0  0  0  0  0
    0.7500   -1.2990    0.0000 C   0  0  0  0  0  0  0  0  0  0  0  0
    1.5000    0.0000    0.0000 C   0  0  0  0  0  0  0  0  0  0  0  0
    0.7500    1.2990    0.0000 C   0  0  0  0  0  0  0  0  0  0  0  0
   -0.7500    1.2990    0.0000 C   0  0  0  0  0  0  0  0  0  0  0  0
   -1.5000    2.5981    0.0000 Cl  0  0  0  0  0  0  0  0  0  0  0  0
   -1.5000    0.0000    0.0000 C   0  0  0  0  0  0  0  0  0  0  0  0
   -0.7500   -1.2990    0.0000 C   0  0  0  0  0  0  0  0  0  0  0  0
    0.8899   -3.9684    0.0000 N   0  0  0  0  0  0  0  0  0  0  0  0
    2.0046   -4.9721    0.0000 O   0  0  0  0  0  0  0  0  0  0  0  0
    9.4121  -12.6296    0.0000 C   0  0  0  0  0  0  0  0  0  0  0  0
    9.5689  -14.1214    0.0000 F   0  0  0  0  0  0  0  0  0  0  0  0
   10.9039  -12.4728    0.0000 F   0  0  0  0  0  0  0  0  0  0  0  0
    7.9203  -12.7864    0.0000 F   0  0  0  0  0  0  0  0  0  0  0  0
  1  2  2  0
  2  3  1  0
  3  4  1  0
  4  5  1  0
  5  6  1  0
  6  7  1  0
  7  8  1  0
  8  9  1  0
  9 10  2  0
 10 11  1  0
 11 12  1  0
 12 13  2  0
 13 14  1  0
 14 15  2  0
 15 16  1  0
 15 17  1  0
 17 18  2  0
 11 19  2  0
 19 20  1  0
  2 21  1  0
 21 22  1  0
 21 23  1  0
 21 24  1  0
 20  9  1  0
 18 12  1  0
M  END
>  <molecule_chembl_id>  (132) 
CHEMBL3585985

>  <canonical_smiles>  (132) 
O=C(CCCCCCc1nc(-c2ccc(Cl)cc2)no1)C(F)(F)F

>  <pchembl_value_mean>  (132) 
5.07

>  <document_chembl_id>  (132) 
CHEMBL3585316

$$$$

     RDKit          2D

 22 24  0  0  0  0  0  0  0  0999 V2000
  -10.5000   -5.1962    0.0000 O   0  0  0  0  0  0  0  0  0  0  0  0
   -9.7500   -3.8971    0.0000 C   0  0  0  0  0  0  0  0  0  0  0  0
  -10.5000   -2.5981    0.0000 N   0  0  0  0  0  0  0  0  0  0  0  0
  -12.0000   -2.5981    0.0000 O   0  0  0  0  0  0  0  0  0  0  0  0
   -8.2500   -3.8971    0.0000 C   0  0  0  0  0  0  0  0  0  0  0  0
   -7.5000   -2.5981    0.0000 C   0  0  0  0  0  0  0  0  0  0  0  0
   -6.0000   -2.5981    0.0000 C   0  0  0  0  0  0  0  0  0  0  0  0
   -5.2500   -3.8971    0.0000 C   0  0  0  0  0  0  0  0  0  0  0  0
   -3.7500   -3.8971    0.0000 C   0  0  0  0  0  0  0  0  0  0  0  0
   -3.0000   -2.5981    0.0000 N   0  0  0  0  0  0  0  0  0  0  0  0
   -1.5000   -2.5981    0.0000 C   0  0  0  0  0  0  0  0  0  0  0  0
   -0.7500   -3.8971    0.0000 C   0  0  0  0  0  0  0  0  0  0  0  0
    0.7500   -3.8971    0.0000 C   0  0  0  0  0  0  0  0  0  0  0  0
    1.5000   -2.5981    0.0000 C   0  0  0  0  0  0  0  0  0  0  0  0
    0.7500   -1.2990    0.0000 C   0  0  0  0  0  0  0  0  0  0  0  0
    1.5000    0.0000    0.0000 N   0  0  0  0  0  0  0  0  0  0  0  0
    0.7500    1.2990    0.0000 C   0  0  0  0  0  0  0  0  0  0  0  0
   -0.7500    1.2990    0.0000 C   0  0  0  0  0  0  0  0  0  0  0  0
   -1.5000    0.0000    0.0000 C   0  0  0  0  0  0  0  0  0  0  0  0
   -0.7500   -1.2990    0.0000 C   0  0  0  0  0  0  0  0  0  0  0  0
   -6.0000   -5.1962    0.0000 C   0  0  0  0  0  0  0  0  0  0  0  0
   -7.5000   -5.1962    0.0000 C   0  0  0  0  0  0  0  0  0  0  0  0
  1  2  2  0
  2  3  1  0
  3  4  1  0
  2  5  1  0
  5  6  2  0
  6  7  1  0
  7  8  2  0
  8  9  1  0
  9 10  1  0
 10 11  1  0
 11 12  2  0
 12 13  1  0
 13 14  2  0
 14 15  1  0
 15 16  2  0
 16 17  1  0
 17 18  2  0
 18 19  1  0
 19 20  2  0
  8 21  1  0
 21 22  2  0
 22  5  1  0
 20 11  1  0
 20 15  1  0
M  END
>  <molecule_chembl_id>  (133) 
CHEMBL4095667

>  <canonical_smiles>  (133) 
O=C(NO)c1ccc(CNc2cccc3ncccc23)cc1

>  <pchembl_value_mean>  (133) 
5.07

>  <document_chembl_id>  (133) 
CHEMBL4024792

$$$$

     RDKit          2D

 25 27  0  0  0  0  0  0  0  0999 V2000
    3.7500    1.2990    0.0000 O   0  0  0  0  0  0  0  0  0  0  0  0
    3.0000    0.0000    0.0000 C   0  0  0  0  0  0  0  0  0  0  0  0
    3.7500   -1.2990    0.0000 N   0  0  0  0  0  0  0  0  0  0  0  0
    5.2500   -1.2990    0.0000 O   0  0  0  0  0  0  0  0  0  0  0  0
    1.5000    0.0000    0.0000 C   0  0  0  0  0  0  0  0  0  0  0  0
    0.7500   -1.2990    0.0000 C   0  0  0  0  0  0  0  0  0  0  0  0
   -0.7500   -1.2990    0.0000 C   0  0  0  0  0  0  0  0  0  0  0  0
   -1.5000    0.0000    0.0000 C   0  0  0  0  0  0  0  0  0  0  0  0
   -3.0000    0.0000    0.0000 C   0  0  0  0  0  0  0  0  0  0  0  0
   -3.7500    1.2990    0.0000 N   0  0  0  0  0  0  0  0  0  0  0  0
   -5.2500    1.2990    0.0000 C   0  0  0  0  0  0  0  0  0  0  0  0
   -6.0000    2.5981    0.0000 C   0  0  0  0  0  0  0  0  0  0  0  0
   -7.4918    2.7549    0.0000 N   0  0  0  0  0  0  0  0  0  0  0  0
   -7.8037    4.2221    0.0000 C   0  0  0  0  0  0  0  0  0  0  0  0
   -9.1740    4.8322    0.0000 C   0  0  0  0  0  0  0  0  0  0  0  0
   -9.3308    6.3240    0.0000 C   0  0  0  0  0  0  0  0  0  0  0  0
  -10.7011    6.9341    0.0000 C   0  0  0  0  0  0  0  0  0  0  0  0
  -11.9146    6.0524    0.0000 C   0  0  0  0  0  0  0  0  0  0  0  0
  -13.2849    6.6625    0.0000 Cl  0  0  0  0  0  0  0  0  0  0  0  0
  -11.7578    4.5606    0.0000 C   0  0  0  0  0  0  0  0  0  0  0  0
  -10.3875    3.9505    0.0000 C   0  0  0  0  0  0  0  0  0  0  0  0
   -6.5046    4.9721    0.0000 N   0  0  0  0  0  0  0  0  0  0  0  0
   -5.3899    3.9684    0.0000 O   0  0  0  0  0  0  0  0  0  0  0  0
   -0.7500    1.2990    0.0000 C   0  0  0  0  0  0  0  0  0  0  0  0
    0.7500    1.2990    0.0000 C   0  0  0  0  0  0  0  0  0  0  0  0
  1  2  2  0
  2  3  1  0
  3  4  1  0
  2  5  1  0
  5  6  2  0
  6  7  1  0
  7  8  2  0
  8  9  1  0
  9 10  1  0
 10 11  1  0
 11 12  1  0
 12 13  2  0
 13 14  1  0
 14 15  1  0
 15 16  2  0
 16 17  1  0
 17 18  2  0
 18 19  1  0
 18 20  1  0
 20 21  2  0
 14 22  2  0
 22 23  1  0
  8 24  1  0
 24 25  2  0
 25  5  1  0
 23 12  1  0
 21 15  1  0
M  END
>  <molecule_chembl_id>  (134) 
CHEMBL3421751

>  <canonical_smiles>  (134) 
O=C(NO)c1ccc(CNCc2nc(-c3ccc(Cl)cc3)no2)cc1

>  <pchembl_value_mean>  (134) 
5.07

>  <document_chembl_id>  (134) 
CHEMBL3421568

$$$$

     RDKit          2D

 14 13  0  0  0  0  0  0  0  0999 V2000
   -1.2990    2.2500    0.0000 O   0  0  0  0  0  0  0  0  0  0  0  0
   -1.2990    0.7500    0.0000 C   0  0  0  0  0  0  0  0  0  0  0  0
    0.0000    0.0000    0.0000 C   0  0  0  0  0  0  0  0  0  0  0  0
    1.2990    0.7500    0.0000 C   0  0  0  0  0  0  0  0  0  0  0  0
    2.5981   -0.0000    0.0000 C   0  0  0  0  0  0  0  0  0  0  0  0
    3.8971    0.7500    0.0000 C   0  0  0  0  0  0  0  0  0  0  0  0
    5.1962   -0.0000    0.0000 C   0  0  0  0  0  0  0  0  0  0  0  0
    6.4952    0.7500    0.0000 C   0  0  0  0  0  0  0  0  0  0  0  0
    7.7942   -0.0000    0.0000 C   0  0  0  0  0  0  0  0  0  0  0  0
    7.7942   -1.5000    0.0000 O   0  0  0  0  0  0  0  0  0  0  0  0
    9.0933    0.7500    0.0000 N   0  0  0  0  0  0  0  0  0  0  0  0
   10.3923   -0.0000    0.0000 O   0  0  0  0  0  0  0  0  0  0  0  0
   -2.5981    0.0000    0.0000 N   0  0  0  0  0  0  0  0  0  0  0  0
   -3.8971    0.7500    0.0000 O   0  0  0  0  0  0  0  0  0  0  0  0
  1  2  2  0
  2  3  1  0
  3  4  1  0
  4  5  1  0
  5  6  1  0
  6  7  1  0
  7  8  1  0
  8  9  1  0
  9 10  2  0
  9 11  1  0
 11 12  1  0
  2 13  1  0
 13 14  1  0
M  END
>  <molecule_chembl_id>  (135) 
CHEMBL320497

>  <canonical_smiles>  (135) 
O=C(CCCCCCC(=O)NO)NO

>  <pchembl_value_mean>  (135) 
5.08

>  <document_chembl_id>  (135) 
CHEMBL3739297

$$$$

     RDKit          2D

 33 36  0  0  0  0  0  0  0  0999 V2000
    3.7500    1.2990    0.0000 O   0  0  0  0  0  0  0  0  0  0  0  0
    3.0000    0.0000    0.0000 C   0  0  0  0  0  0  0  0  0  0  0  0
    3.7500   -1.2990    0.0000 N   0  0  0  0  0  0  0  0  0  0  0  0
    5.2500   -1.2990    0.0000 O   0  0  0  0  0  0  0  0  0  0  0  0
    1.5000    0.0000    0.0000 C   0  0  0  0  0  0  0  0  0  0  0  0
    0.7500   -1.2990    0.0000 C   0  0  0  0  0  0  0  0  0  0  0  0
   -0.7500   -1.2990    0.0000 C   0  0  0  0  0  0  0  0  0  0  0  0
   -1.5000    0.0000    0.0000 C   0  0  0  0  0  0  0  0  0  0  0  0
   -3.0000    0.0000    0.0000 C   0  0  0  0  0  0  0  0  0  0  0  0
   -3.7500    1.2990    0.0000 N   0  0  0  0  0  0  0  0  0  0  0  0
   -5.2418    1.4558    0.0000 C   0  0  0  0  0  0  0  0  0  0  0  0
   -6.2455    0.3411    0.0000 O   0  0  0  0  0  0  0  0  0  0  0  0
   -5.5537    2.9231    0.0000 C   0  0  0  0  0  0  0  0  0  0  0  0
   -6.9240    3.5332    0.0000 C   0  0  0  0  0  0  0  0  0  0  0  0
   -7.0808    5.0249    0.0000 C   0  0  0  0  0  0  0  0  0  0  0  0
   -5.8672    5.9066    0.0000 C   0  0  0  0  0  0  0  0  0  0  0  0
   -6.0240    7.3984    0.0000 C   0  0  0  0  0  0  0  0  0  0  0  0
   -7.3943    8.0085    0.0000 C   0  0  0  0  0  0  0  0  0  0  0  0
   -8.6079    7.1268    0.0000 C   0  0  0  0  0  0  0  0  0  0  0  0
   -8.4511    5.6350    0.0000 C   0  0  0  0  0  0  0  0  0  0  0  0
   -4.2546    3.6731    0.0000 N   0  0  0  0  0  0  0  0  0  0  0  0
   -4.0978    5.1648    0.0000 C   0  0  0  0  0  0  0  0  0  0  0  0
   -2.7275    5.7749    0.0000 C   0  0  0  0  0  0  0  0  0  0  0  0
   -1.5140    4.8933    0.0000 C   0  0  0  0  0  0  0  0  0  0  0  0
   -0.1437    5.5034    0.0000 C   0  0  0  0  0  0  0  0  0  0  0  0
    0.0131    6.9951    0.0000 C   0  0  0  0  0  0  0  0  0  0  0  0
    1.3835    7.6053    0.0000 Cl  0  0  0  0  0  0  0  0  0  0  0  0
   -1.2004    7.8768    0.0000 C   0  0  0  0  0  0  0  0  0  0  0  0
   -2.5707    7.2667    0.0000 C   0  0  0  0  0  0  0  0  0  0  0  0
   -3.1399    2.6694    0.0000 C   0  0  0  0  0  0  0  0  0  0  0  0
   -1.6727    2.9812    0.0000 O   0  0  0  0  0  0  0  0  0  0  0  0
   -0.7500    1.2990    0.0000 C   0  0  0  0  0  0  0  0  0  0  0  0
    0.7500    1.2990    0.0000 C   0  0  0  0  0  0  0  0  0  0  0  0
  1  2  2  0
  2  3  1  0
  3  4  1  0
  2  5  1  0
  5  6  2  0
  6  7  1  0
  7  8  2  0
  8  9  1  0
  9 10  1  0
 10 11  1  0
 11 12  2  0
 11 13  1  0
 13 14  1  0
 14 15  1  0
 15 16  2  0
 16 17  1  0
 17 18  2  0
 18 19  1  0
 19 20  2  0
 13 21  1  0
 21 22  1  0
 22 23  1  0
 23 24  2  0
 24 25  1  0
 25 26  2  0
 26 27  1  0
 26 28  1  0
 28 29  2  0
 21 30  1  0
 30 31  2  0
  8 32  1  0
 32 33  2  0
 33  5  1  0
 30 10  1  0
 20 15  1  0
 29 23  1  0
M  END
>  <molecule_chembl_id>  (136) 
CHEMBL4851023

>  <canonical_smiles>  (136) 
O=C(NO)c1ccc(CN2C(=O)C(Cc3ccccc3)N(Cc3ccc(Cl)cc3)C2=O)cc1

>  <pchembl_value_mean>  (136) 
5.08

>  <document_chembl_id>  (136) 
CHEMBL4842326

$$$$

     RDKit          2D

 30 33  0  0  0  0  0  0  0  0999 V2000
    3.0000    0.0000    0.0000 N   0  0  0  0  0  0  0  0  0  0  0  0
    1.5000    0.0000    0.0000 C   0  0  0  0  0  0  0  0  0  0  0  0
    0.7500   -1.2990    0.0000 C   0  0  0  0  0  0  0  0  0  0  0  0
   -0.7500   -1.2990    0.0000 C   0  0  0  0  0  0  0  0  0  0  0  0
   -1.5000    0.0000    0.0000 C   0  0  0  0  0  0  0  0  0  0  0  0
   -0.7500    1.2990    0.0000 C   0  0  0  0  0  0  0  0  0  0  0  0
    0.7500    1.2990    0.0000 C   0  0  0  0  0  0  0  0  0  0  0  0
    1.5000    2.5981    0.0000 N   0  0  0  0  0  0  0  0  0  0  0  0
    0.7500    3.8971    0.0000 C   0  0  0  0  0  0  0  0  0  0  0  0
   -0.7500    3.8971    0.0000 O   0  0  0  0  0  0  0  0  0  0  0  0
    1.5000    5.1962    0.0000 C   0  0  0  0  0  0  0  0  0  0  0  0
    3.0000    5.1962    0.0000 C   0  0  0  0  0  0  0  0  0  0  0  0
    3.7500    6.4952    0.0000 C   0  0  0  0  0  0  0  0  0  0  0  0
    3.0000    7.7942    0.0000 C   0  0  0  0  0  0  0  0  0  0  0  0
    3.7500    9.0933    0.0000 C   0  0  0  0  0  0  0  0  0  0  0  0
    5.2500    9.0933    0.0000 N   0  0  0  0  0  0  0  0  0  0  0  0
    6.0000   10.3923    0.0000 C   0  0  0  0  0  0  0  0  0  0  0  0
    7.5000   10.3923    0.0000 C   0  0  0  0  0  0  0  0  0  0  0  0
    8.3817   11.6058    0.0000 N   0  0  0  0  0  0  0  0  0  0  0  0
    9.8083   11.1423    0.0000 C   0  0  0  0  0  0  0  0  0  0  0  0
   11.0218   12.0240    0.0000 C   0  0  0  0  0  0  0  0  0  0  0  0
   12.3921   11.4139    0.0000 C   0  0  0  0  0  0  0  0  0  0  0  0
   13.6056   12.2956    0.0000 C   0  0  0  0  0  0  0  0  0  0  0  0
   13.4488   13.7873    0.0000 C   0  0  0  0  0  0  0  0  0  0  0  0
   12.0785   14.3974    0.0000 N   0  0  0  0  0  0  0  0  0  0  0  0
   10.8650   13.5158    0.0000 C   0  0  0  0  0  0  0  0  0  0  0  0
    9.8083    9.6423    0.0000 N   0  0  0  0  0  0  0  0  0  0  0  0
    8.3817    9.1788    0.0000 O   0  0  0  0  0  0  0  0  0  0  0  0
    1.5000    7.7942    0.0000 C   0  0  0  0  0  0  0  0  0  0  0  0
    0.7500    6.4952    0.0000 C   0  0  0  0  0  0  0  0  0  0  0  0
  1  2  1  0
  2  3  2  0
  3  4  1  0
  4  5  2  0
  5  6  1  0
  6  7  2  0
  7  8  1  0
  8  9  1  0
  9 10  2  0
  9 11  1  0
 11 12  2  0
 12 13  1  0
 13 14  2  0
 14 15  1  0
 15 16  1  0
 16 17  1  0
 17 18  1  0
 18 19  2  0
 19 20  1  0
 20 21  1  0
 21 22  2  0
 22 23  1  0
 23 24  2  0
 24 25  1  0
 25 26  2  0
 20 27  2  0
 27 28  1  0
 14 29  1  0
 29 30  2  0
  7  2  1  0
 30 11  1  0
 28 18  1  0
 26 21  1  0
M  END
>  <molecule_chembl_id>  (137) 
CHEMBL3421745

>  <canonical_smiles>  (137) 
Nc1ccccc1NC(=O)c1ccc(CNCc2nc(-c3cccnc3)no2)cc1

>  <pchembl_value_mean>  (137) 
5.08

>  <document_chembl_id>  (137) 
CHEMBL3421568

$$$$

     RDKit          2D

 37 40  0  0  0  0  0  0  0  0999 V2000
   -1.5364   -0.5249    0.0000 C   0  0  0  0  0  0  0  0  0  0  0  0
   -1.0729    0.9017    0.0000 C   0  0  0  0  0  0  0  0  0  0  0  0
   -2.0766    2.0164    0.0000 C   0  0  0  0  0  0  0  0  0  0  0  0
    0.3943    1.2135    0.0000 C   0  0  0  0  0  0  0  0  0  0  0  0
    0.8578    2.6401    0.0000 C   0  0  0  0  0  0  0  0  0  0  0  0
   -0.1459    3.7548    0.0000 N   0  0  0  0  0  0  0  0  0  0  0  0
    0.3177    5.1814    0.0000 C   0  0  0  0  0  0  0  0  0  0  0  0
    1.7849    5.4933    0.0000 O   0  0  0  0  0  0  0  0  0  0  0  0
   -0.6860    6.2961    0.0000 C   0  0  0  0  0  0  0  0  0  0  0  0
   -0.2225    7.7227    0.0000 N   0  0  0  0  0  0  0  0  0  0  0  0
   -1.2262    8.8374    0.0000 C   0  0  0  0  0  0  0  0  0  0  0  0
   -2.6934    8.5256    0.0000 O   0  0  0  0  0  0  0  0  0  0  0  0
   -0.7627   10.2640    0.0000 C   0  0  0  0  0  0  0  0  0  0  0  0
    0.7045   10.5759    0.0000 C   0  0  0  0  0  0  0  0  0  0  0  0
    1.1681   12.0025    0.0000 C   0  0  0  0  0  0  0  0  0  0  0  0
    0.1644   13.1172    0.0000 C   0  0  0  0  0  0  0  0  0  0  0  0
   -1.3029   12.8053    0.0000 C   0  0  0  0  0  0  0  0  0  0  0  0
   -2.3066   13.9200    0.0000 C   0  0  0  0  0  0  0  0  0  0  0  0
   -1.8430   15.3466    0.0000 C   0  0  0  0  0  0  0  0  0  0  0  0
   -2.8467   16.4613    0.0000 C   0  0  0  0  0  0  0  0  0  0  0  0
   -4.3139   16.1495    0.0000 O   0  0  0  0  0  0  0  0  0  0  0  0
   -2.3832   17.8879    0.0000 N   0  0  0  0  0  0  0  0  0  0  0  0
   -3.3869   19.0026    0.0000 O   0  0  0  0  0  0  0  0  0  0  0  0
   -1.7664   11.3787    0.0000 C   0  0  0  0  0  0  0  0  0  0  0  0
    2.3250    2.9520    0.0000 B   0  0  0  0  0  0  0  0  0  0  0  0
    3.4398    1.9483    0.0000 O   0  0  0  0  0  0  0  0  0  0  0  0
    4.7388    2.6983    0.0000 C   0  0  0  0  0  0  0  0  0  0  0  0
    6.1654    2.2348    0.0000 C   0  0  0  0  0  0  0  0  0  0  0  0
    7.2801    3.2385    0.0000 C   0  0  0  0  0  0  0  0  0  0  0  0
    6.9682    4.7057    0.0000 C   0  0  0  0  0  0  0  0  0  0  0  0
    5.5417    5.1692    0.0000 C   0  0  0  0  0  0  0  0  0  0  0  0
    4.4269    4.1655    0.0000 C   0  0  0  0  0  0  0  0  0  0  0  0
    3.9634    5.5921    0.0000 C   0  0  0  0  0  0  0  0  0  0  0  0
    2.9352    4.3223    0.0000 O   0  0  0  0  0  0  0  0  0  0  0  0
    5.8535    3.7020    0.0000 C   0  0  0  0  0  0  0  0  0  0  0  0
    4.7707    3.5499    0.0000 C   0  0  0  0  0  0  0  0  0  0  0  0
    5.0669    4.4615    0.0000 C   0  0  0  0  0  0  0  0  0  0  0  0
  1  2  1  0
  2  3  1  0
  2  4  1  0
  4  5  1  0
  5  6  1  0
  6  7  1  0
  7  8  2  0
  7  9  1  0
  9 10  1  0
 10 11  1  0
 11 12  2  0
 11 13  1  0
 13 14  2  0
 14 15  1  0
 15 16  2  0
 16 17  1  0
 17 18  1  0
 18 19  2  3
 19 20  1  0
 20 21  2  0
 20 22  1  0
 22 23  1  0
 17 24  2  0
  5 25  1  0
 25 26  1  0
 26 27  1  0
 27 28  1  0
 28 29  1  0
 29 30  1  0
 30 31  1  0
 31 32  1  0
 32 33  1  0
 32 34  1  0
 30 35  1  0
 35 36  1  0
 35 37  1  0
 24 13  1  0
 34 25  1  0
 32 27  1  0
 35 28  1  0
M  END
>  <molecule_chembl_id>  (138) 
CHEMBL4576202

>  <canonical_smiles>  (138) 
CC(C)CC(NC(=O)CNC(=O)c1cccc(C=CC(=O)NO)c1)B1OC2C3CC(CC2(C)O1)C3(C)C

>  <pchembl_value_mean>  (138) 
5.08

>  <document_chembl_id>  (138) 
CHEMBL4342504

$$$$

     RDKit          2D

 35 39  0  0  0  0  0  0  0  0999 V2000
    3.0000    0.0000    0.0000 N   0  0  0  0  0  0  0  0  0  0  0  0
    1.5000    0.0000    0.0000 C   0  0  0  0  0  0  0  0  0  0  0  0
    0.7500   -1.2990    0.0000 C   0  0  0  0  0  0  0  0  0  0  0  0
   -0.7500   -1.2990    0.0000 C   0  0  0  0  0  0  0  0  0  0  0  0
   -1.5000    0.0000    0.0000 C   0  0  0  0  0  0  0  0  0  0  0  0
   -0.7500    1.2990    0.0000 C   0  0  0  0  0  0  0  0  0  0  0  0
    0.7500    1.2990    0.0000 C   0  0  0  0  0  0  0  0  0  0  0  0
    1.5000    2.5981    0.0000 N   0  0  0  0  0  0  0  0  0  0  0  0
    0.7500    3.8971    0.0000 C   0  0  0  0  0  0  0  0  0  0  0  0
   -0.7500    3.8971    0.0000 O   0  0  0  0  0  0  0  0  0  0  0  0
    1.5000    5.1962    0.0000 C   0  0  0  0  0  0  0  0  0  0  0  0
    3.0000    5.1962    0.0000 C   0  0  0  0  0  0  0  0  0  0  0  0
    3.7500    6.4952    0.0000 C   0  0  0  0  0  0  0  0  0  0  0  0
    3.0000    7.7942    0.0000 C   0  0  0  0  0  0  0  0  0  0  0  0
    3.7500    9.0933    0.0000 C   0  0  0  0  0  0  0  0  0  0  0  0
    5.2500    9.0933    0.0000 S   0  0  0  0  0  0  0  0  0  0  0  0
    6.0000   10.3923    0.0000 C   0  0  0  0  0  0  0  0  0  0  0  0
    5.3899   11.7626    0.0000 N   0  0  0  0  0  0  0  0  0  0  0  0
    6.5046   12.7663    0.0000 N   0  0  0  0  0  0  0  0  0  0  0  0
    7.8037   12.0163    0.0000 C   0  0  0  0  0  0  0  0  0  0  0  0
    9.1740   12.6264    0.0000 C   0  0  0  0  0  0  0  0  0  0  0  0
   10.3875   11.7447    0.0000 C   0  0  0  0  0  0  0  0  0  0  0  0
   11.7578   12.3549    0.0000 C   0  0  0  0  0  0  0  0  0  0  0  0
   11.9146   13.8466    0.0000 N   0  0  0  0  0  0  0  0  0  0  0  0
   10.7011   14.7283    0.0000 C   0  0  0  0  0  0  0  0  0  0  0  0
    9.3308   14.1182    0.0000 C   0  0  0  0  0  0  0  0  0  0  0  0
    7.4918   10.5491    0.0000 N   0  0  0  0  0  0  0  0  0  0  0  0
    8.4955    9.4344    0.0000 C   0  0  0  0  0  0  0  0  0  0  0  0
    8.0320    8.0078    0.0000 C   0  0  0  0  0  0  0  0  0  0  0  0
    9.0356    6.8931    0.0000 C   0  0  0  0  0  0  0  0  0  0  0  0
   10.5029    7.2049    0.0000 C   0  0  0  0  0  0  0  0  0  0  0  0
   10.9664    8.6315    0.0000 C   0  0  0  0  0  0  0  0  0  0  0  0
    9.9627    9.7462    0.0000 C   0  0  0  0  0  0  0  0  0  0  0  0
    1.5000    7.7942    0.0000 C   0  0  0  0  0  0  0  0  0  0  0  0
    0.7500    6.4952    0.0000 C   0  0  0  0  0  0  0  0  0  0  0  0
  1  2  1  0
  2  3  2  0
  3  4  1  0
  4  5  2  0
  5  6  1  0
  6  7  2  0
  7  8  1  0
  8  9  1  0
  9 10  2  0
  9 11  1  0
 11 12  2  0
 12 13  1  0
 13 14  2  0
 14 15  1  0
 15 16  1  0
 16 17  1  0
 17 18  2  0
 18 19  1  0
 19 20  2  0
 20 21  1  0
 21 22  2  0
 22 23  1  0
 23 24  2  0
 24 25  1  0
 25 26  2  0
 20 27  1  0
 27 28  1  0
 28 29  2  0
 29 30  1  0
 30 31  2  0
 31 32  1  0
 32 33  2  0
 14 34  1  0
 34 35  2  0
  7  2  1  0
 35 11  1  0
 27 17  1  0
 33 28  1  0
 26 21  1  0
M  END
>  <molecule_chembl_id>  (139) 
CHEMBL4872625

>  <canonical_smiles>  (139) 
Nc1ccccc1NC(=O)c1ccc(CSc2nnc(-c3ccncc3)n2-c2ccccc2)cc1

>  <pchembl_value_mean>  (139) 
5.08

>  <document_chembl_id>  (139) 
CHEMBL4823270

$$$$

     RDKit          2D

 21 23  0  0  0  0  0  0  0  0999 V2000
   -0.0000   -5.1073    0.0000 C   0  0  0  0  0  0  0  0  0  0  0  0
   -0.0000   -3.6073    0.0000 C   0  0  0  0  0  0  0  0  0  0  0  0
    1.2135   -2.7256    0.0000 C   0  0  0  0  0  0  0  0  0  0  0  0
    0.7500   -1.2990    0.0000 C   0  0  0  0  0  0  0  0  0  0  0  0
    1.5000    0.0000    0.0000 C   0  0  0  0  0  0  0  0  0  0  0  0
    0.7500    1.2990    0.0000 C   0  0  0  0  0  0  0  0  0  0  0  0
   -0.7500    1.2990    0.0000 C   0  0  0  0  0  0  0  0  0  0  0  0
   -1.5000    0.0000    0.0000 C   0  0  0  0  0  0  0  0  0  0  0  0
   -0.7500   -1.2990    0.0000 C   0  0  0  0  0  0  0  0  0  0  0  0
   -1.2135   -2.7256    0.0000 N   0  0  0  0  0  0  0  0  0  0  0  0
   -2.6401   -3.1891    0.0000 C   0  0  0  0  0  0  0  0  0  0  0  0
   -3.7548   -2.1855    0.0000 C   0  0  0  0  0  0  0  0  0  0  0  0
   -3.4430   -0.7182    0.0000 C   0  0  0  0  0  0  0  0  0  0  0  0
   -4.5577    0.2855    0.0000 C   0  0  0  0  0  0  0  0  0  0  0  0
   -5.9843   -0.1781    0.0000 C   0  0  0  0  0  0  0  0  0  0  0  0
   -7.0990    0.8256    0.0000 C   0  0  0  0  0  0  0  0  0  0  0  0
   -8.5256    0.3621    0.0000 O   0  0  0  0  0  0  0  0  0  0  0  0
   -6.7871    2.2929    0.0000 N   0  0  0  0  0  0  0  0  0  0  0  0
   -7.9018    3.2966    0.0000 O   0  0  0  0  0  0  0  0  0  0  0  0
   -6.2961   -1.6453    0.0000 C   0  0  0  0  0  0  0  0  0  0  0  0
   -5.1814   -2.6490    0.0000 C   0  0  0  0  0  0  0  0  0  0  0  0
  1  2  1  0
  2  3  2  0
  3  4  1  0
  4  5  2  0
  5  6  1  0
  6  7  2  0
  7  8  1  0
  8  9  2  0
  9 10  1  0
 10 11  1  0
 11 12  1  0
 12 13  2  0
 13 14  1  0
 14 15  2  0
 15 16  1  0
 16 17  2  0
 16 18  1  0
 18 19  1  0
 15 20  1  0
 20 21  2  0
 10  2  1  0
 21 12  1  0
  9  4  1  0
M  END
>  <molecule_chembl_id>  (140) 
CHEMBL3893799

>  <canonical_smiles>  (140) 
Cc1cc2ccccc2n1Cc1ccc(C(=O)NO)cc1

>  <pchembl_value_mean>  (140) 
5.09

>  <document_chembl_id>  (140) 
CHEMBL3886619

$$$$

     RDKit          2D

 16 18  0  0  0  0  0  0  0  0999 V2000
   -3.0000   -2.5981    0.0000 S   0  0  0  0  0  0  0  0  0  0  0  0
   -1.5000   -2.5981    0.0000 C   0  0  0  0  0  0  0  0  0  0  0  0
   -0.7500   -3.8971    0.0000 S   0  0  0  0  0  0  0  0  0  0  0  0
    0.7500   -3.8971    0.0000 C   0  0  0  0  0  0  0  0  0  0  0  0
    1.5000   -5.1962    0.0000 C   0  0  0  0  0  0  0  0  0  0  0  0
    3.0000   -5.1962    0.0000 C   0  0  0  0  0  0  0  0  0  0  0  0
    3.7500   -3.8971    0.0000 C   0  0  0  0  0  0  0  0  0  0  0  0
    3.0000   -2.5981    0.0000 C   0  0  0  0  0  0  0  0  0  0  0  0
    3.7500   -1.2990    0.0000 I   0  0  0  0  0  0  0  0  0  0  0  0
    1.5000   -2.5981    0.0000 C   0  0  0  0  0  0  0  0  0  0  0  0
    0.7500   -1.2990    0.0000 C   0  0  0  0  0  0  0  0  0  0  0  0
    1.5000    0.0000    0.0000 N   0  0  0  0  0  0  0  0  0  0  0  0
    0.7500    1.2990    0.0000 C   0  0  0  0  0  0  0  0  0  0  0  0
   -0.7500    1.2990    0.0000 C   0  0  0  0  0  0  0  0  0  0  0  0
   -1.5000    0.0000    0.0000 C   0  0  0  0  0  0  0  0  0  0  0  0
   -0.7500   -1.2990    0.0000 N   0  0  0  0  0  0  0  0  0  0  0  0
  1  2  2  0
  2  3  1  0
  3  4  1  0
  4  5  2  0
  5  6  1  0
  6  7  2  0
  7  8  1  0
  8  9  1  0
  8 10  2  0
 10 11  1  0
 11 12  2  0
 12 13  1  0
 13 14  1  0
 14 15  1  0
 15 16  1  0
 16  2  1  0
 10  4  1  0
 16 11  1  0
M  END
>  <molecule_chembl_id>  (141) 
CHEMBL4442562

>  <canonical_smiles>  (141) 
S=C1Sc2cccc(I)c2C2=NCCCN12

>  <pchembl_value_mean>  (141) 
5.09

>  <document_chembl_id>  (141) 
CHEMBL4406872

$$$$

     RDKit          2D

 23 24  0  0  0  0  0  0  0  0999 V2000
    3.0000    0.0000    0.0000 N   0  0  0  0  0  0  0  0  0  0  0  0
    1.5000    0.0000    0.0000 C   0  0  0  0  0  0  0  0  0  0  0  0
    0.7500   -1.2990    0.0000 C   0  0  0  0  0  0  0  0  0  0  0  0
   -0.7500   -1.2990    0.0000 C   0  0  0  0  0  0  0  0  0  0  0  0
   -1.5000    0.0000    0.0000 C   0  0  0  0  0  0  0  0  0  0  0  0
   -0.7500    1.2990    0.0000 C   0  0  0  0  0  0  0  0  0  0  0  0
    0.7500    1.2990    0.0000 C   0  0  0  0  0  0  0  0  0  0  0  0
    1.5000    2.5981    0.0000 N   0  0  0  0  0  0  0  0  0  0  0  0
    0.7500    3.8971    0.0000 C   0  0  0  0  0  0  0  0  0  0  0  0
   -0.7500    3.8971    0.0000 O   0  0  0  0  0  0  0  0  0  0  0  0
    1.5000    5.1962    0.0000 C   0  0  0  0  0  0  0  0  0  0  0  0
    0.7500    6.4952    0.0000 C   0  0  0  0  0  0  0  0  0  0  0  0
    1.5000    7.7942    0.0000 C   0  0  0  0  0  0  0  0  0  0  0  0
    0.7500    9.0933    0.0000 C   0  0  0  0  0  0  0  0  0  0  0  0
    1.5000   10.3923    0.0000 N   0  0  0  0  0  0  0  0  0  0  0  0
    0.7500   11.6913    0.0000 C   0  0  0  0  0  0  0  0  0  0  0  0
   -0.7500   11.6913    0.0000 O   0  0  0  0  0  0  0  0  0  0  0  0
    1.5000   12.9904    0.0000 C   0  0  0  0  0  0  0  0  0  0  0  0
    3.0000   12.9904    0.0000 C   0  0  0  0  0  0  0  0  0  0  0  0
    3.7500   14.2894    0.0000 C   0  0  0  0  0  0  0  0  0  0  0  0
    3.0000   15.5885    0.0000 C   0  0  0  0  0  0  0  0  0  0  0  0
    1.5000   15.5885    0.0000 C   0  0  0  0  0  0  0  0  0  0  0  0
    0.7500   14.2894    0.0000 C   0  0  0  0  0  0  0  0  0  0  0  0
  1  2  1  0
  2  3  2  0
  3  4  1  0
  4  5  2  0
  5  6  1  0
  6  7  2  0
  7  8  1  0
  8  9  1  0
  9 10  2  0
  9 11  1  0
 11 12  1  0
 12 13  1  0
 13 14  1  0
 14 15  1  0
 15 16  1  0
 16 17  2  0
 16 18  1  0
 18 19  2  0
 19 20  1  0
 20 21  2  0
 21 22  1  0
 22 23  2  0
  7  2  1  0
 23 18  1  0
M  END
>  <molecule_chembl_id>  (142) 
CHEMBL4534621

>  <canonical_smiles>  (142) 
Nc1ccccc1NC(=O)CCCCNC(=O)c1ccccc1

>  <pchembl_value_mean>  (142) 
5.09

>  <document_chembl_id>  (142) 
CHEMBL4351000

$$$$

     RDKit          2D

 10 10  0  0  0  0  0  0  0  0999 V2000
    3.7500    1.2990    0.0000 O   0  0  0  0  0  0  0  0  0  0  0  0
    3.0000    0.0000    0.0000 C   0  0  0  0  0  0  0  0  0  0  0  0
    3.7500   -1.2990    0.0000 N   0  0  0  0  0  0  0  0  0  0  0  0
    5.2500   -1.2990    0.0000 O   0  0  0  0  0  0  0  0  0  0  0  0
    1.5000    0.0000    0.0000 C   0  0  0  0  0  0  0  0  0  0  0  0
    0.7500   -1.2990    0.0000 C   0  0  0  0  0  0  0  0  0  0  0  0
   -0.7500   -1.2990    0.0000 C   0  0  0  0  0  0  0  0  0  0  0  0
   -1.5000    0.0000    0.0000 C   0  0  0  0  0  0  0  0  0  0  0  0
   -0.7500    1.2990    0.0000 C   0  0  0  0  0  0  0  0  0  0  0  0
    0.7500    1.2990    0.0000 C   0  0  0  0  0  0  0  0  0  0  0  0
  1  2  2  0
  2  3  1  0
  3  4  1  0
  2  5  1  0
  5  6  2  0
  6  7  1  0
  7  8  2  0
  8  9  1  0
  9 10  2  0
 10  5  1  0
M  END
>  <molecule_chembl_id>  (143) 
CHEMBL16300

>  <canonical_smiles>  (143) 
O=C(NO)c1ccccc1

>  <pchembl_value_mean>  (143) 
5.1

>  <document_chembl_id>  (143) 
CHEMBL2331470

$$$$

     RDKit          2D

 25 26  0  0  0  0  0  0  0  0999 V2000
   10.4688  -10.2562    0.0000 O   0  0  0  0  0  0  0  0  0  0  0  0
    9.2553  -11.1379    0.0000 C   0  0  0  0  0  0  0  0  0  0  0  0
    7.8850  -10.5278    0.0000 C   0  0  0  0  0  0  0  0  0  0  0  0
    7.7282   -9.0360    0.0000 C   0  0  0  0  0  0  0  0  0  0  0  0
    6.3579   -8.4259    0.0000 C   0  0  0  0  0  0  0  0  0  0  0  0
    6.2011   -6.9341    0.0000 C   0  0  0  0  0  0  0  0  0  0  0  0
    4.8308   -6.3240    0.0000 C   0  0  0  0  0  0  0  0  0  0  0  0
    4.6740   -4.8322    0.0000 C   0  0  0  0  0  0  0  0  0  0  0  0
    3.3037   -4.2221    0.0000 C   0  0  0  0  0  0  0  0  0  0  0  0
    2.9918   -2.7549    0.0000 N   0  0  0  0  0  0  0  0  0  0  0  0
    1.5000   -2.5981    0.0000 C   0  0  0  0  0  0  0  0  0  0  0  0
    0.7500   -1.2990    0.0000 C   0  0  0  0  0  0  0  0  0  0  0  0
    1.5000    0.0000    0.0000 C   0  0  0  0  0  0  0  0  0  0  0  0
    0.7500    1.2990    0.0000 C   0  0  0  0  0  0  0  0  0  0  0  0
   -0.7500    1.2990    0.0000 C   0  0  0  0  0  0  0  0  0  0  0  0
   -1.5000    2.5981    0.0000 C   0  0  0  0  0  0  0  0  0  0  0  0
   -2.2500    3.8971    0.0000 F   0  0  0  0  0  0  0  0  0  0  0  0
   -0.2010    3.3481    0.0000 F   0  0  0  0  0  0  0  0  0  0  0  0
   -2.7990    1.8481    0.0000 F   0  0  0  0  0  0  0  0  0  0  0  0
   -1.5000    0.0000    0.0000 C   0  0  0  0  0  0  0  0  0  0  0  0
   -0.7500   -1.2990    0.0000 C   0  0  0  0  0  0  0  0  0  0  0  0
    0.8899   -3.9684    0.0000 N   0  0  0  0  0  0  0  0  0  0  0  0
    2.0046   -4.9721    0.0000 O   0  0  0  0  0  0  0  0  0  0  0  0
    9.4121  -12.6296    0.0000 N   0  0  0  0  0  0  0  0  0  0  0  0
   10.7824  -13.2397    0.0000 O   0  0  0  0  0  0  0  0  0  0  0  0
  1  2  2  0
  2  3  1  0
  3  4  1  0
  4  5  1  0
  5  6  1  0
  6  7  1  0
  7  8  1  0
  8  9  1  0
  9 10  2  0
 10 11  1  0
 11 12  1  0
 12 13  2  0
 13 14  1  0
 14 15  2  0
 15 16  1  0
 16 17  1  0
 16 18  1  0
 16 19  1  0
 15 20  1  0
 20 21  2  0
 11 22  2  0
 22 23  1  0
  2 24  1  0
 24 25  1  0
 23  9  1  0
 21 12  1  0
M  END
>  <molecule_chembl_id>  (144) 
CHEMBL3585961

>  <canonical_smiles>  (144) 
O=C(CCCCCCc1nc(-c2ccc(C(F)(F)F)cc2)no1)NO

>  <pchembl_value_mean>  (144) 
5.1

>  <document_chembl_id>  (144) 
CHEMBL3585316

$$$$

     RDKit          2D

 22 23  0  0  0  0  0  0  0  0999 V2000
    3.0000    0.0000    0.0000 C   0  0  0  0  0  0  0  0  0  0  0  0
    1.5000    0.0000    0.0000 C   0  0  0  0  0  0  0  0  0  0  0  0
    0.7500   -1.2990    0.0000 C   0  0  0  0  0  0  0  0  0  0  0  0
   -0.7500   -1.2990    0.0000 C   0  0  0  0  0  0  0  0  0  0  0  0
   -1.5000   -2.5981    0.0000 F   0  0  0  0  0  0  0  0  0  0  0  0
   -1.5000    0.0000    0.0000 C   0  0  0  0  0  0  0  0  0  0  0  0
   -0.7500    1.2990    0.0000 C   0  0  0  0  0  0  0  0  0  0  0  0
    0.7500    1.2990    0.0000 C   0  0  0  0  0  0  0  0  0  0  0  0
    1.5000    2.5981    0.0000 C   0  0  0  0  0  0  0  0  0  0  0  0
    2.7990    1.8481    0.0000 C   0  0  0  0  0  0  0  0  0  0  0  0
    0.2010    3.3481    0.0000 C   0  0  0  0  0  0  0  0  0  0  0  0
    2.2500    3.8971    0.0000 N   0  0  0  0  0  0  0  0  0  0  0  0
    3.7500    3.8971    0.0000 C   0  0  0  0  0  0  0  0  0  0  0  0
    4.5000    2.5981    0.0000 N   0  0  0  0  0  0  0  0  0  0  0  0
    6.0000    2.5981    0.0000 C   0  0  0  0  0  0  0  0  0  0  0  0
    6.7500    3.8971    0.0000 C   0  0  0  0  0  0  0  0  0  0  0  0
    8.2500    3.8971    0.0000 C   0  0  0  0  0  0  0  0  0  0  0  0
    9.0000    5.1962    0.0000 O   0  0  0  0  0  0  0  0  0  0  0  0
    9.0000    2.5981    0.0000 N   0  0  0  0  0  0  0  0  0  0  0  0
   10.5000    2.5981    0.0000 O   0  0  0  0  0  0  0  0  0  0  0  0
    6.0000    5.1962    0.0000 C   0  0  0  0  0  0  0  0  0  0  0  0
    4.5000    5.1962    0.0000 N   0  0  0  0  0  0  0  0  0  0  0  0
  1  2  1  0
  2  3  2  0
  3  4  1  0
  4  5  1  0
  4  6  2  0
  6  7  1  0
  7  8  2  0
  8  9  1  0
  9 10  1  0
  9 11  1  0
  9 12  1  0
 12 13  1  0
 13 14  2  0
 14 15  1  0
 15 16  2  0
 16 17  1  0
 17 18  2  0
 17 19  1  0
 19 20  1  0
 16 21  1  0
 21 22  2  0
  8  2  1  0
 22 13  1  0
M  END
>  <molecule_chembl_id>  (145) 
CHEMBL3655949

>  <canonical_smiles>  (145) 
Cc1cc(F)ccc1C(C)(C)Nc1ncc(C(=O)NO)cn1

>  <pchembl_value_mean>  (145) 
5.1

>  <document_chembl_id>  (145) 
CHEMBL3639071

$$$$

     RDKit          2D

 24 27  0  0  0  0  0  0  0  0999 V2000
   -8.5256    0.3621    0.0000 O   0  0  0  0  0  0  0  0  0  0  0  0
   -7.0990    0.8256    0.0000 C   0  0  0  0  0  0  0  0  0  0  0  0
   -6.7871    2.2929    0.0000 N   0  0  0  0  0  0  0  0  0  0  0  0
   -7.9018    3.2966    0.0000 O   0  0  0  0  0  0  0  0  0  0  0  0
   -5.9843   -0.1781    0.0000 C   0  0  0  0  0  0  0  0  0  0  0  0
   -4.5577    0.2855    0.0000 C   0  0  0  0  0  0  0  0  0  0  0  0
   -3.4430   -0.7182    0.0000 C   0  0  0  0  0  0  0  0  0  0  0  0
   -3.7548   -2.1855    0.0000 C   0  0  0  0  0  0  0  0  0  0  0  0
   -2.6401   -3.1891    0.0000 C   0  0  0  0  0  0  0  0  0  0  0  0
   -1.2135   -2.7256    0.0000 N   0  0  0  0  0  0  0  0  0  0  0  0
   -0.0000   -3.6073    0.0000 C   0  0  0  0  0  0  0  0  0  0  0  0
    1.2135   -2.7256    0.0000 C   0  0  0  0  0  0  0  0  0  0  0  0
    0.7500   -1.2990    0.0000 C   0  0  0  0  0  0  0  0  0  0  0  0
    1.5000    0.0000    0.0000 C   0  0  0  0  0  0  0  0  0  0  0  0
    0.7500    1.2990    0.0000 C   0  0  0  0  0  0  0  0  0  0  0  0
   -0.7500    1.2990    0.0000 C   0  0  0  0  0  0  0  0  0  0  0  0
   -1.5000    0.0000    0.0000 C   0  0  0  0  0  0  0  0  0  0  0  0
   -0.7500   -1.2990    0.0000 C   0  0  0  0  0  0  0  0  0  0  0  0
    2.5838   -3.3357    0.0000 C   0  0  0  0  0  0  0  0  0  0  0  0
    2.7406   -4.8275    0.0000 O   0  0  0  0  0  0  0  0  0  0  0  0
    1.5271   -5.7092    0.0000 C   0  0  0  0  0  0  0  0  0  0  0  0
    0.1568   -5.0991    0.0000 C   0  0  0  0  0  0  0  0  0  0  0  0
   -5.1814   -2.6490    0.0000 C   0  0  0  0  0  0  0  0  0  0  0  0
   -6.2961   -1.6453    0.0000 C   0  0  0  0  0  0  0  0  0  0  0  0
  1  2  2  0
  2  3  1  0
  3  4  1  0
  2  5  1  0
  5  6  2  0
  6  7  1  0
  7  8  2  0
  8  9  1  0
  9 10  1  0
 10 11  1  0
 11 12  2  0
 12 13  1  0
 13 14  2  0
 14 15  1  0
 15 16  2  0
 16 17  1  0
 17 18  2  0
 12 19  1  0
 19 20  1  0
 20 21  1  0
 21 22  1  0
  8 23  1  0
 23 24  2  0
 24  5  1  0
 18 10  1  0
 22 11  1  0
 18 13  1  0
M  END
>  <molecule_chembl_id>  (146) 
CHEMBL4531802

>  <canonical_smiles>  (146) 
O=C(NO)c1ccc(Cn2c3c(c4ccccc42)COCC3)cc1

>  <pchembl_value_mean>  (146) 
5.1

>  <document_chembl_id>  (146) 
CHEMBL4385610

$$$$

     RDKit          2D

 20 20  0  0  0  0  0  0  0  0999 V2000
   15.0000   -7.7942    0.0000 O   0  0  0  0  0  0  0  0  0  0  0  0
   14.2500   -6.4952    0.0000 C   0  0  0  0  0  0  0  0  0  0  0  0
   12.7500   -6.4952    0.0000 N   0  0  0  0  0  0  0  0  0  0  0  0
   12.0000   -7.7942    0.0000 O   0  0  0  0  0  0  0  0  0  0  0  0
   12.0000   -5.1962    0.0000 C   0  0  0  0  0  0  0  0  0  0  0  0
   10.5000   -5.1962    0.0000 C   0  0  0  0  0  0  0  0  0  0  0  0
    9.7500   -3.8971    0.0000 C   0  0  0  0  0  0  0  0  0  0  0  0
    8.2500   -3.8971    0.0000 C   0  0  0  0  0  0  0  0  0  0  0  0
    7.5000   -2.5981    0.0000 C   0  0  0  0  0  0  0  0  0  0  0  0
    6.0000   -2.5981    0.0000 C   0  0  0  0  0  0  0  0  0  0  0  0
    5.2500   -1.2990    0.0000 C   0  0  0  0  0  0  0  0  0  0  0  0
    3.7500   -1.2990    0.0000 C   0  0  0  0  0  0  0  0  0  0  0  0
    3.0000   -2.5981    0.0000 O   0  0  0  0  0  0  0  0  0  0  0  0
    3.0000    0.0000    0.0000 N   0  0  0  0  0  0  0  0  0  0  0  0
    1.5000    0.0000    0.0000 C   0  0  0  0  0  0  0  0  0  0  0  0
    0.7500   -1.2990    0.0000 C   0  0  0  0  0  0  0  0  0  0  0  0
   -0.7500   -1.2990    0.0000 C   0  0  0  0  0  0  0  0  0  0  0  0
   -1.5000    0.0000    0.0000 C   0  0  0  0  0  0  0  0  0  0  0  0
   -0.7500    1.2990    0.0000 C   0  0  0  0  0  0  0  0  0  0  0  0
    0.7500    1.2990    0.0000 C   0  0  0  0  0  0  0  0  0  0  0  0
  1  2  2  0
  2  3  1  0
  3  4  1  0
  3  5  1  0
  5  6  1  0
  6  7  1  0
  7  8  1  0
  8  9  1  0
  9 10  1  0
 10 11  1  0
 11 12  1  0
 12 13  2  0
 12 14  1  0
 14 15  1  0
 15 16  2  0
 16 17  1  0
 17 18  2  0
 18 19  1  0
 19 20  2  0
 20 15  1  0
M  END
>  <molecule_chembl_id>  (147) 
CHEMBL139192

>  <canonical_smiles>  (147) 
O=CN(O)CCCCCCCC(=O)Nc1ccccc1

>  <pchembl_value_mean>  (147) 
5.11

>  <document_chembl_id>  (147) 
CHEMBL1137945

$$$$

     RDKit          2D

 25 27  0  0  0  0  0  0  0  0999 V2000
    3.7500    1.2990    0.0000 O   0  0  0  0  0  0  0  0  0  0  0  0
    3.0000    0.0000    0.0000 C   0  0  0  0  0  0  0  0  0  0  0  0
    3.7500   -1.2990    0.0000 N   0  0  0  0  0  0  0  0  0  0  0  0
    5.2500   -1.2990    0.0000 O   0  0  0  0  0  0  0  0  0  0  0  0
    1.5000    0.0000    0.0000 C   0  0  0  0  0  0  0  0  0  0  0  0
    0.7500   -1.2990    0.0000 C   0  0  0  0  0  0  0  0  0  0  0  0
   -0.7500   -1.2990    0.0000 C   0  0  0  0  0  0  0  0  0  0  0  0
   -1.5000    0.0000    0.0000 C   0  0  0  0  0  0  0  0  0  0  0  0
   -3.0000    0.0000    0.0000 C   0  0  0  0  0  0  0  0  0  0  0  0
   -3.7500    1.2990    0.0000 N   0  0  0  0  0  0  0  0  0  0  0  0
   -5.2500    1.2990    0.0000 C   0  0  0  0  0  0  0  0  0  0  0  0
   -6.0000    2.5981    0.0000 C   0  0  0  0  0  0  0  0  0  0  0  0
   -7.4918    2.7549    0.0000 N   0  0  0  0  0  0  0  0  0  0  0  0
   -7.8037    4.2221    0.0000 C   0  0  0  0  0  0  0  0  0  0  0  0
   -9.1740    4.8322    0.0000 C   0  0  0  0  0  0  0  0  0  0  0  0
   -9.3308    6.3240    0.0000 C   0  0  0  0  0  0  0  0  0  0  0  0
  -10.7011    6.9341    0.0000 C   0  0  0  0  0  0  0  0  0  0  0  0
  -11.9146    6.0524    0.0000 C   0  0  0  0  0  0  0  0  0  0  0  0
  -13.2849    6.6625    0.0000 F   0  0  0  0  0  0  0  0  0  0  0  0
  -11.7578    4.5606    0.0000 C   0  0  0  0  0  0  0  0  0  0  0  0
  -10.3875    3.9505    0.0000 C   0  0  0  0  0  0  0  0  0  0  0  0
   -6.5046    4.9721    0.0000 N   0  0  0  0  0  0  0  0  0  0  0  0
   -5.3899    3.9684    0.0000 O   0  0  0  0  0  0  0  0  0  0  0  0
   -0.7500    1.2990    0.0000 C   0  0  0  0  0  0  0  0  0  0  0  0
    0.7500    1.2990    0.0000 C   0  0  0  0  0  0  0  0  0  0  0  0
  1  2  2  0
  2  3  1  0
  3  4  1  0
  2  5  1  0
  5  6  2  0
  6  7  1  0
  7  8  2  0
  8  9  1  0
  9 10  1  0
 10 11  1  0
 11 12  1  0
 12 13  2  0
 13 14  1  0
 14 15  1  0
 15 16  2  0
 16 17  1  0
 17 18  2  0
 18 19  1  0
 18 20  1  0
 20 21  2  0
 14 22  2  0
 22 23  1  0
  8 24  1  0
 24 25  2  0
 25  5  1  0
 23 12  1  0
 21 15  1  0
M  END
>  <molecule_chembl_id>  (148) 
CHEMBL3421753

>  <canonical_smiles>  (148) 
O=C(NO)c1ccc(CNCc2nc(-c3ccc(F)cc3)no2)cc1

>  <pchembl_value_mean>  (148) 
5.11

>  <document_chembl_id>  (148) 
CHEMBL3421568

$$$$

     RDKit          2D

 28 30  0  0  0  0  0  0  0  0999 V2000
    3.0000    0.0000    0.0000 N   0  0  0  0  0  0  0  0  0  0  0  0
    1.5000    0.0000    0.0000 C   0  0  0  0  0  0  0  0  0  0  0  0
    0.7500   -1.2990    0.0000 C   0  0  0  0  0  0  0  0  0  0  0  0
   -0.7500   -1.2990    0.0000 C   0  0  0  0  0  0  0  0  0  0  0  0
   -1.5000   -2.5981    0.0000 F   0  0  0  0  0  0  0  0  0  0  0  0
   -1.5000    0.0000    0.0000 C   0  0  0  0  0  0  0  0  0  0  0  0
   -0.7500    1.2990    0.0000 C   0  0  0  0  0  0  0  0  0  0  0  0
    0.7500    1.2990    0.0000 C   0  0  0  0  0  0  0  0  0  0  0  0
    1.5000    2.5981    0.0000 N   0  0  0  0  0  0  0  0  0  0  0  0
    0.7500    3.8971    0.0000 C   0  0  0  0  0  0  0  0  0  0  0  0
   -0.7500    3.8971    0.0000 O   0  0  0  0  0  0  0  0  0  0  0  0
    1.5000    5.1962    0.0000 C   0  0  0  0  0  0  0  0  0  0  0  0
    3.0000    5.1962    0.0000 C   0  0  0  0  0  0  0  0  0  0  0  0
    3.7500    6.4952    0.0000 C   0  0  0  0  0  0  0  0  0  0  0  0
    3.0000    7.7942    0.0000 C   0  0  0  0  0  0  0  0  0  0  0  0
    3.7500    9.0933    0.0000 N   0  0  0  0  0  0  0  0  0  0  0  0
    5.2500    9.0933    0.0000 C   0  0  0  0  0  0  0  0  0  0  0  0
    6.0000    7.7942    0.0000 O   0  0  0  0  0  0  0  0  0  0  0  0
    6.0000   10.3923    0.0000 C   0  0  0  0  0  0  0  0  0  0  0  0
    7.5000   10.3923    0.0000 C   0  0  0  0  0  0  0  0  0  0  0  0
    8.2500   11.6913    0.0000 C   0  0  0  0  0  0  0  0  0  0  0  0
    9.7500   11.6913    0.0000 C   0  0  0  0  0  0  0  0  0  0  0  0
   10.5000   12.9904    0.0000 C   0  0  0  0  0  0  0  0  0  0  0  0
    9.7500   14.2894    0.0000 C   0  0  0  0  0  0  0  0  0  0  0  0
    8.2500   14.2894    0.0000 C   0  0  0  0  0  0  0  0  0  0  0  0
    7.5000   12.9904    0.0000 C   0  0  0  0  0  0  0  0  0  0  0  0
    1.5000    7.7942    0.0000 C   0  0  0  0  0  0  0  0  0  0  0  0
    0.7500    6.4952    0.0000 N   0  0  0  0  0  0  0  0  0  0  0  0
  1  2  1  0
  2  3  2  0
  3  4  1  0
  4  5  1  0
  4  6  2  0
  6  7  1  0
  7  8  2  0
  8  9  1  0
  9 10  1  0
 10 11  2  0
 10 12  1  0
 12 13  2  0
 13 14  1  0
 14 15  2  0
 15 16  1  0
 16 17  1  0
 17 18  2  0
 17 19  1  0
 19 20  1  0
 20 21  1  0
 21 22  2  0
 22 23  1  0
 23 24  2  0
 24 25  1  0
 25 26  2  0
 15 27  1  0
 27 28  2  0
  8  2  1  0
 28 12  1  0
 26 21  1  0
M  END
>  <molecule_chembl_id>  (149) 
CHEMBL4175450

>  <canonical_smiles>  (149) 
Nc1cc(F)ccc1NC(=O)c1ccc(NC(=O)CCc2ccccc2)cn1

>  <pchembl_value_mean>  (149) 
5.11

>  <document_chembl_id>  (149) 
CHEMBL4130443

$$$$

     RDKit          2D

 30 34  0  0  0  0  0  0  0  0999 V2000
    5.4813   -6.0477    0.0000 C   0  0  0  0  0  0  0  0  0  0  0  0
    4.1110   -5.4376    0.0000 N   0  0  0  0  0  0  0  0  0  0  0  0
    3.9542   -3.9458    0.0000 C   0  0  0  0  0  0  0  0  0  0  0  0
    5.1677   -3.0642    0.0000 O   0  0  0  0  0  0  0  0  0  0  0  0
    2.5838   -3.3357    0.0000 C   0  0  0  0  0  0  0  0  0  0  0  0
    2.7406   -4.8275    0.0000 C   0  0  0  0  0  0  0  0  0  0  0  0
    1.5271   -5.7092    0.0000 N   0  0  0  0  0  0  0  0  0  0  0  0
    0.1568   -5.0991    0.0000 C   0  0  0  0  0  0  0  0  0  0  0  0
   -0.0000   -3.6073    0.0000 C   0  0  0  0  0  0  0  0  0  0  0  0
    1.2135   -2.7256    0.0000 C   0  0  0  0  0  0  0  0  0  0  0  0
    0.7500   -1.2990    0.0000 C   0  0  0  0  0  0  0  0  0  0  0  0
    1.5000    0.0000    0.0000 C   0  0  0  0  0  0  0  0  0  0  0  0
    0.7500    1.2990    0.0000 C   0  0  0  0  0  0  0  0  0  0  0  0
   -0.7500    1.2990    0.0000 C   0  0  0  0  0  0  0  0  0  0  0  0
   -1.5000    0.0000    0.0000 C   0  0  0  0  0  0  0  0  0  0  0  0
   -0.7500   -1.2990    0.0000 C   0  0  0  0  0  0  0  0  0  0  0  0
   -1.2135   -2.7256    0.0000 N   0  0  0  0  0  0  0  0  0  0  0  0
   -2.6401   -3.1891    0.0000 C   0  0  0  0  0  0  0  0  0  0  0  0
   -3.7548   -2.1855    0.0000 C   0  0  0  0  0  0  0  0  0  0  0  0
   -3.4430   -0.7182    0.0000 C   0  0  0  0  0  0  0  0  0  0  0  0
   -4.5577    0.2855    0.0000 C   0  0  0  0  0  0  0  0  0  0  0  0
   -5.9843   -0.1781    0.0000 C   0  0  0  0  0  0  0  0  0  0  0  0
   -7.0990    0.8256    0.0000 C   0  0  0  0  0  0  0  0  0  0  0  0
   -8.5256    0.3621    0.0000 O   0  0  0  0  0  0  0  0  0  0  0  0
   -6.7871    2.2929    0.0000 N   0  0  0  0  0  0  0  0  0  0  0  0
   -7.9018    3.2966    0.0000 O   0  0  0  0  0  0  0  0  0  0  0  0
   -6.2961   -1.6453    0.0000 C   0  0  0  0  0  0  0  0  0  0  0  0
   -5.1814   -2.6490    0.0000 C   0  0  0  0  0  0  0  0  0  0  0  0
    2.8974   -6.3193    0.0000 C   0  0  0  0  0  0  0  0  0  0  0  0
    3.0542   -7.8111    0.0000 O   0  0  0  0  0  0  0  0  0  0  0  0
  1  2  1  0
  2  3  1  0
  3  4  2  0
  3  5  1  0
  5  6  1  0
  6  7  1  0
  7  8  1  0
  8  9  1  0
  9 10  2  0
 10 11  1  0
 11 12  2  0
 12 13  1  0
 13 14  2  0
 14 15  1  0
 15 16  2  0
 16 17  1  0
 17 18  1  0
 18 19  1  0
 19 20  2  0
 20 21  1  0
 21 22  2  0
 22 23  1  0
 23 24  2  0
 23 25  1  0
 25 26  1  0
 22 27  1  0
 27 28  2  0
  7 29  1  0
 29 30  2  0
 29  2  1  0
 10  5  1  0
 16 11  1  0
 28 19  1  0
 17  9  1  0
M  END
>  <molecule_chembl_id>  (150) 
CHEMBL4087616

>  <canonical_smiles>  (150) 
CN1C(=O)C2CN(Cc3c2c2ccccc2n3Cc2ccc(C(=O)NO)cc2)C1=O

>  <pchembl_value_mean>  (150) 
5.13

>  <document_chembl_id>  (150) 
CHEMBL4033665

$$$$

     RDKit          2D

 45 49  0  0  0  0  0  0  0  0999 V2000
    4.5000   -2.5981    0.0000 C   0  0  0  0  0  0  0  0  0  0  0  0
    3.7500   -1.2990    0.0000 S   0  0  0  0  0  0  0  0  0  0  0  0
    2.4510   -2.0490    0.0000 O   0  0  0  0  0  0  0  0  0  0  0  0
    5.0490   -0.5490    0.0000 O   0  0  0  0  0  0  0  0  0  0  0  0
    3.0000    0.0000    0.0000 N   0  0  0  0  0  0  0  0  0  0  0  0
    1.5000    0.0000    0.0000 C   0  0  0  0  0  0  0  0  0  0  0  0
    0.7500   -1.2990    0.0000 C   0  0  0  0  0  0  0  0  0  0  0  0
   -0.7500   -1.2990    0.0000 C   0  0  0  0  0  0  0  0  0  0  0  0
   -1.5000    0.0000    0.0000 C   0  0  0  0  0  0  0  0  0  0  0  0
   -3.0000    0.0000    0.0000 C   0  0  0  0  0  0  0  0  0  0  0  0
   -3.7500    1.2990    0.0000 C   0  0  0  0  0  0  0  0  0  0  0  0
   -5.2500    1.2990    0.0000 C   0  0  0  0  0  0  0  0  0  0  0  0
   -6.0000    0.0000    0.0000 N   0  0  0  0  0  0  0  0  0  0  0  0
   -5.2500   -1.2990    0.0000 C   0  0  0  0  0  0  0  0  0  0  0  0
   -6.0000   -2.5981    0.0000 N   0  0  0  0  0  0  0  0  0  0  0  0
   -7.5000   -2.5981    0.0000 C   0  0  0  0  0  0  0  0  0  0  0  0
   -8.2500   -1.2990    0.0000 C   0  0  0  0  0  0  0  0  0  0  0  0
   -9.7500   -1.2990    0.0000 C   0  0  0  0  0  0  0  0  0  0  0  0
  -10.5000   -2.5981    0.0000 C   0  0  0  0  0  0  0  0  0  0  0  0
  -12.0000   -2.5981    0.0000 N   0  0  0  0  0  0  0  0  0  0  0  0
  -12.7500   -1.2990    0.0000 C   0  0  0  0  0  0  0  0  0  0  0  0
  -14.2500   -1.2990    0.0000 C   0  0  0  0  0  0  0  0  0  0  0  0
  -15.0000   -2.5981    0.0000 C   0  0  0  0  0  0  0  0  0  0  0  0
  -16.5000   -2.5981    0.0000 C   0  0  0  0  0  0  0  0  0  0  0  0
  -17.2500   -3.8971    0.0000 O   0  0  0  0  0  0  0  0  0  0  0  0
  -17.2500   -1.2990    0.0000 N   0  0  0  0  0  0  0  0  0  0  0  0
  -18.7500   -1.2990    0.0000 C   0  0  0  0  0  0  0  0  0  0  0  0
  -19.5000    0.0000    0.0000 C   0  0  0  0  0  0  0  0  0  0  0  0
  -21.0000    0.0000    0.0000 C   0  0  0  0  0  0  0  0  0  0  0  0
  -21.7500   -1.2990    0.0000 C   0  0  0  0  0  0  0  0  0  0  0  0
  -23.2500   -1.2990    0.0000 C   0  0  0  0  0  0  0  0  0  0  0  0
  -24.0000   -0.0000    0.0000 C   0  0  0  0  0  0  0  0  0  0  0  0
  -25.5000   -0.0000    0.0000 C   0  0  0  0  0  0  0  0  0  0  0  0
  -26.2500   -1.2990    0.0000 O   0  0  0  0  0  0  0  0  0  0  0  0
  -26.2500    1.2990    0.0000 N   0  0  0  0  0  0  0  0  0  0  0  0
  -27.7500    1.2990    0.0000 O   0  0  0  0  0  0  0  0  0  0  0  0
  -21.0000   -2.5981    0.0000 C   0  0  0  0  0  0  0  0  0  0  0  0
  -19.5000   -2.5981    0.0000 C   0  0  0  0  0  0  0  0  0  0  0  0
  -14.2500   -3.8971    0.0000 C   0  0  0  0  0  0  0  0  0  0  0  0
  -12.7500   -3.8971    0.0000 C   0  0  0  0  0  0  0  0  0  0  0  0
   -9.7500   -3.8971    0.0000 C   0  0  0  0  0  0  0  0  0  0  0  0
   -8.2500   -3.8971    0.0000 C   0  0  0  0  0  0  0  0  0  0  0  0
   -3.7500   -1.2990    0.0000 N   0  0  0  0  0  0  0  0  0  0  0  0
   -0.7500    1.2990    0.0000 C   0  0  0  0  0  0  0  0  0  0  0  0
    0.7500    1.2990    0.0000 C   0  0  0  0  0  0  0  0  0  0  0  0
  1  2  1  0
  2  3  2  0
  2  4  2  0
  2  5  1  0
  5  6  1  0
  6  7  2  0
  7  8  1  0
  8  9  2  0
  9 10  1  0
 10 11  2  0
 11 12  1  0
 12 13  2  0
 13 14  1  0
 14 15  1  0
 15 16  1  0
 16 17  2  0
 17 18  1  0
 18 19  2  0
 19 20  1  0
 20 21  1  0
 21 22  1  0
 22 23  1  0
 23 24  1  0
 24 25  2  0
 24 26  1  0
 26 27  1  0
 27 28  2  0
 28 29  1  0
 29 30  2  0
 30 31  1  0
 31 32  2  3
 32 33  1  0
 33 34  2  0
 33 35  1  0
 35 36  1  0
 30 37  1  0
 37 38  2  0
 23 39  1  0
 39 40  1  0
 19 41  1  0
 41 42  2  0
 14 43  2  0
  9 44  1  0
 44 45  2  0
 45  6  1  0
 43 10  1  0
 42 16  1  0
 40 20  1  0
 38 27  1  0
M  END
>  <molecule_chembl_id>  (151) 
CHEMBL4175555

>  <canonical_smiles>  (151) 
CS(=O)(=O)Nc1ccc(-c2ccnc(Nc3ccc(N4CCC(C(=O)Nc5ccc(C=CC(=O)NO)cc5)CC4)cc3)n2)cc1

>  <pchembl_value_mean>  (151) 
5.13

>  <document_chembl_id>  (151) 
CHEMBL4145634

$$$$

     RDKit          2D

 24 26  0  0  0  0  0  0  0  0999 V2000
    1.5000   -5.1962    0.0000 C   0  0  0  0  0  0  0  0  0  0  0  0
    0.7500   -3.8971    0.0000 C   0  0  0  0  0  0  0  0  0  0  0  0
    1.5000   -2.5981    0.0000 N   0  0  0  0  0  0  0  0  0  0  0  0
    0.7500   -1.2990    0.0000 C   0  0  0  0  0  0  0  0  0  0  0  0
    1.5000    0.0000    0.0000 C   0  0  0  0  0  0  0  0  0  0  0  0
    0.7500    1.2990    0.0000 C   0  0  0  0  0  0  0  0  0  0  0  0
   -0.7500    1.2990    0.0000 C   0  0  0  0  0  0  0  0  0  0  0  0
   -1.5000    2.5981    0.0000 C   0  0  0  0  0  0  0  0  0  0  0  0
   -0.7500    3.8971    0.0000 C   0  0  0  0  0  0  0  0  0  0  0  0
   -1.5000    5.1962    0.0000 C   0  0  0  0  0  0  0  0  0  0  0  0
   -3.0000    5.1962    0.0000 O   0  0  0  0  0  0  0  0  0  0  0  0
   -0.7500    6.4952    0.0000 N   0  0  0  0  0  0  0  0  0  0  0  0
   -1.5000    7.7942    0.0000 O   0  0  0  0  0  0  0  0  0  0  0  0
   -1.5000    0.0000    0.0000 C   0  0  0  0  0  0  0  0  0  0  0  0
   -0.7500   -1.2990    0.0000 C   0  0  0  0  0  0  0  0  0  0  0  0
   -1.5000   -2.5981    0.0000 C   0  0  0  0  0  0  0  0  0  0  0  0
   -3.0000   -2.5981    0.0000 O   0  0  0  0  0  0  0  0  0  0  0  0
   -0.7500   -3.8971    0.0000 N   0  0  0  0  0  0  0  0  0  0  0  0
   -1.5000   -5.1962    0.0000 C   0  0  0  0  0  0  0  0  0  0  0  0
   -3.0000   -5.1962    0.0000 C   0  0  0  0  0  0  0  0  0  0  0  0
   -3.7500   -6.4952    0.0000 C   0  0  0  0  0  0  0  0  0  0  0  0
   -3.0000   -7.7942    0.0000 C   0  0  0  0  0  0  0  0  0  0  0  0
   -1.5000   -7.7942    0.0000 C   0  0  0  0  0  0  0  0  0  0  0  0
   -0.7500   -6.4952    0.0000 C   0  0  0  0  0  0  0  0  0  0  0  0
  1  2  1  0
  2  3  2  0
  3  4  1  0
  4  5  2  0
  5  6  1  0
  6  7  2  0
  7  8  1  0
  8  9  2  3
  9 10  1  0
 10 11  2  0
 10 12  1  0
 12 13  1  0
  7 14  1  0
 14 15  2  0
 15 16  1  0
 16 17  2  0
 16 18  1  0
 18 19  1  0
 19 20  2  0
 20 21  1  0
 21 22  2  0
 22 23  1  0
 23 24  2  0
 18  2  1  0
 24 19  1  0
 15  4  1  0
M  END
>  <molecule_chembl_id>  (152) 
CHEMBL2425954

>  <canonical_smiles>  (152) 
Cc1nc2ccc(C=CC(=O)NO)cc2c(=O)n1-c1ccccc1

>  <pchembl_value_mean>  (152) 
5.13

>  <document_chembl_id>  (152) 
CHEMBL2424579

$$$$

     RDKit          2D

 21 22  0  0  0  0  0  0  0  0999 V2000
   -0.5773   -4.2803    0.0000 C   0  0  0  0  0  0  0  0  0  0  0  0
    0.8899   -3.9684    0.0000 N   0  0  0  0  0  0  0  0  0  0  0  0
    2.0046   -4.9721    0.0000 C   0  0  0  0  0  0  0  0  0  0  0  0
    1.8478   -6.4639    0.0000 S   0  0  0  0  0  0  0  0  0  0  0  0
    3.0613   -7.3456    0.0000 C   0  0  0  0  0  0  0  0  0  0  0  0
    2.9046   -8.8373    0.0000 C   0  0  0  0  0  0  0  0  0  0  0  0
    4.1181   -9.7190    0.0000 C   0  0  0  0  0  0  0  0  0  0  0  0
    3.9613  -11.2108    0.0000 C   0  0  0  0  0  0  0  0  0  0  0  0
    5.1748  -12.0925    0.0000 C   0  0  0  0  0  0  0  0  0  0  0  0
    5.0180  -13.5843    0.0000 C   0  0  0  0  0  0  0  0  0  0  0  0
    3.6477  -14.1944    0.0000 O   0  0  0  0  0  0  0  0  0  0  0  0
    6.2315  -14.4659    0.0000 O   0  0  0  0  0  0  0  0  0  0  0  0
    3.3037   -4.2221    0.0000 N   0  0  0  0  0  0  0  0  0  0  0  0
    2.9918   -2.7549    0.0000 N   0  0  0  0  0  0  0  0  0  0  0  0
    1.5000   -2.5981    0.0000 C   0  0  0  0  0  0  0  0  0  0  0  0
    0.7500   -1.2990    0.0000 C   0  0  0  0  0  0  0  0  0  0  0  0
    1.5000    0.0000    0.0000 C   0  0  0  0  0  0  0  0  0  0  0  0
    0.7500    1.2990    0.0000 C   0  0  0  0  0  0  0  0  0  0  0  0
   -0.7500    1.2990    0.0000 N   0  0  0  0  0  0  0  0  0  0  0  0
   -1.5000    0.0000    0.0000 C   0  0  0  0  0  0  0  0  0  0  0  0
   -0.7500   -1.2990    0.0000 C   0  0  0  0  0  0  0  0  0  0  0  0
  1  2  1  0
  2  3  1  0
  3  4  1  0
  4  5  1  0
  5  6  1  0
  6  7  1  0
  7  8  1  0
  8  9  1  0
  9 10  1  0
 10 11  2  0
 10 12  1  0
  3 13  2  0
 13 14  1  0
 14 15  2  0
 15 16  1  0
 16 17  2  0
 17 18  1  0
 18 19  2  0
 19 20  1  0
 20 21  2  0
 15  2  1  0
 21 16  1  0
M  END
>  <molecule_chembl_id>  (153) 
CHEMBL4847471

>  <canonical_smiles>  (153) 
Cn1c(SCCCCCC(=O)O)nnc1-c1ccncc1

>  <pchembl_value_mean>  (153) 
5.13

>  <document_chembl_id>  (153) 
CHEMBL4823270

$$$$

     RDKit          2D

 42 47  0  0  0  0  0  0  0  0999 V2000
    1.5000   -7.7942    0.0000 C   0  0  0  0  0  0  0  0  0  0  0  0
    0.7500   -6.4952    0.0000 C   0  0  0  0  0  0  0  0  0  0  0  0
    1.5000   -5.1962    0.0000 C   0  0  0  0  0  0  0  0  0  0  0  0
    3.0000   -5.1962    0.0000 N   0  0  0  0  0  0  0  0  0  0  0  0
    3.7500   -6.4952    0.0000 C   0  0  0  0  0  0  0  0  0  0  0  0
    3.0000   -7.7942    0.0000 N   0  0  0  0  0  0  0  0  0  0  0  0
    3.7500   -9.0933    0.0000 C   0  0  0  0  0  0  0  0  0  0  0  0
    5.2500   -9.0933    0.0000 N   0  0  0  0  0  0  0  0  0  0  0  0
    6.0000   -7.7942    0.0000 C   0  0  0  0  0  0  0  0  0  0  0  0
    7.4672   -7.4824    0.0000 N   0  0  0  0  0  0  0  0  0  0  0  0
    7.6240   -5.9906    0.0000 C   0  0  0  0  0  0  0  0  0  0  0  0
    6.2537   -5.3805    0.0000 N   0  0  0  0  0  0  0  0  0  0  0  0
    5.2500   -6.4952    0.0000 C   0  0  0  0  0  0  0  0  0  0  0  0
    0.7500   -3.8971    0.0000 C   0  0  0  0  0  0  0  0  0  0  0  0
    1.5000   -2.5981    0.0000 N   0  0  0  0  0  0  0  0  0  0  0  0
    0.7500   -1.2990    0.0000 C   0  0  0  0  0  0  0  0  0  0  0  0
    1.5000    0.0000    0.0000 C   0  0  0  0  0  0  0  0  0  0  0  0
    0.7500    1.2990    0.0000 C   0  0  0  0  0  0  0  0  0  0  0  0
   -0.7500    1.2990    0.0000 C   0  0  0  0  0  0  0  0  0  0  0  0
   -1.5000    0.0000    0.0000 C   0  0  0  0  0  0  0  0  0  0  0  0
   -3.0000    0.0000    0.0000 N   0  0  0  0  0  0  0  0  0  0  0  0
   -3.7500    1.2990    0.0000 C   0  0  0  0  0  0  0  0  0  0  0  0
   -5.2500    1.2990    0.0000 C   0  0  0  0  0  0  0  0  0  0  0  0
   -6.0000    2.5981    0.0000 C   0  0  0  0  0  0  0  0  0  0  0  0
   -7.5000    2.5981    0.0000 C   0  0  0  0  0  0  0  0  0  0  0  0
   -8.2500    1.2990    0.0000 C   0  0  0  0  0  0  0  0  0  0  0  0
   -9.7500    1.2990    0.0000 C   0  0  0  0  0  0  0  0  0  0  0  0
  -10.5000    0.0000    0.0000 O   0  0  0  0  0  0  0  0  0  0  0  0
  -10.5000    2.5981    0.0000 N   0  0  0  0  0  0  0  0  0  0  0  0
  -12.0000    2.5981    0.0000 O   0  0  0  0  0  0  0  0  0  0  0  0
   -7.5000    0.0000    0.0000 C   0  0  0  0  0  0  0  0  0  0  0  0
   -6.0000    0.0000    0.0000 C   0  0  0  0  0  0  0  0  0  0  0  0
   -0.7500   -1.2990    0.0000 C   0  0  0  0  0  0  0  0  0  0  0  0
   -1.5000   -2.5981    0.0000 C   0  0  0  0  0  0  0  0  0  0  0  0
   -3.0000   -2.5981    0.0000 O   0  0  0  0  0  0  0  0  0  0  0  0
   -0.7500   -3.8971    0.0000 N   0  0  0  0  0  0  0  0  0  0  0  0
   -1.5000   -5.1962    0.0000 C   0  0  0  0  0  0  0  0  0  0  0  0
   -3.0000   -5.1962    0.0000 C   0  0  0  0  0  0  0  0  0  0  0  0
   -3.7500   -6.4952    0.0000 C   0  0  0  0  0  0  0  0  0  0  0  0
   -3.0000   -7.7942    0.0000 C   0  0  0  0  0  0  0  0  0  0  0  0
   -1.5000   -7.7942    0.0000 C   0  0  0  0  0  0  0  0  0  0  0  0
   -0.7500   -6.4952    0.0000 C   0  0  0  0  0  0  0  0  0  0  0  0
  1  2  1  0
  2  3  1  0
  3  4  1  0
  4  5  1  0
  5  6  2  0
  6  7  1  0
  7  8  2  0
  8  9  1  0
  9 10  1  0
 10 11  1  0
 11 12  2  0
 12 13  1  0
  3 14  1  0
 14 15  2  0
 15 16  1  0
 16 17  2  0
 17 18  1  0
 18 19  2  0
 19 20  1  0
 20 21  1  0
 21 22  1  0
 22 23  1  0
 23 24  2  0
 24 25  1  0
 25 26  2  0
 26 27  1  0
 27 28  2  0
 27 29  1  0
 29 30  1  0
 26 31  1  0
 31 32  2  0
 20 33  2  0
 33 34  1  0
 34 35  2  0
 34 36  1  0
 36 37  1  0
 37 38  2  0
 38 39  1  0
 39 40  2  0
 40 41  1  0
 41 42  2  0
 13  5  1  0
 36 14  1  0
 42 37  1  0
 13  9  2  0
 33 16  1  0
 32 23  1  0
M  END
>  <molecule_chembl_id>  (154) 
CHEMBL4516095

>  <canonical_smiles>  (154) 
CCC(Nc1ncnc2[nH]cnc12)c1nc2cccc(NCc3ccc(C(=O)NO)cc3)c2c(=O)n1-c1ccccc1

>  <pchembl_value_mean>  (154) 
5.14

>  <document_chembl_id>  (154) 
CHEMBL4402587

$$$$

     RDKit          2D

 33 36  0  0  0  0  0  0  0  0999 V2000
   -1.5000   -7.7942    0.0000 C   0  0  0  0  0  0  0  0  0  0  0  0
   -0.7500   -6.4952    0.0000 C   0  0  0  0  0  0  0  0  0  0  0  0
   -1.5000   -5.1962    0.0000 C   0  0  0  0  0  0  0  0  0  0  0  0
   -0.7500   -3.8971    0.0000 C   0  0  0  0  0  0  0  0  0  0  0  0
    0.7500   -3.8971    0.0000 C   0  0  0  0  0  0  0  0  0  0  0  0
    1.5000   -2.5981    0.0000 C   0  0  0  0  0  0  0  0  0  0  0  0
    3.0000   -2.5981    0.0000 O   0  0  0  0  0  0  0  0  0  0  0  0
    0.7500   -1.2990    0.0000 C   0  0  0  0  0  0  0  0  0  0  0  0
    1.5000    0.0000    0.0000 C   0  0  0  0  0  0  0  0  0  0  0  0
    0.7500    1.2990    0.0000 C   0  0  0  0  0  0  0  0  0  0  0  0
   -0.7500    1.2990    0.0000 C   0  0  0  0  0  0  0  0  0  0  0  0
   -1.5000    0.0000    0.0000 C   0  0  0  0  0  0  0  0  0  0  0  0
   -2.9672    0.3119    0.0000 C   0  0  0  0  0  0  0  0  0  0  0  0
   -3.1240    1.8037    0.0000 C   0  0  0  0  0  0  0  0  0  0  0  0
   -1.7537    2.4138    0.0000 N   0  0  0  0  0  0  0  0  0  0  0  0
   -1.4418    3.8810    0.0000 S   0  0  0  0  0  0  0  0  0  0  0  0
    0.0254    3.5691    0.0000 O   0  0  0  0  0  0  0  0  0  0  0  0
   -2.9090    4.1928    0.0000 O   0  0  0  0  0  0  0  0  0  0  0  0
   -1.1300    5.3482    0.0000 C   0  0  0  0  0  0  0  0  0  0  0  0
    0.2966    5.8117    0.0000 C   0  0  0  0  0  0  0  0  0  0  0  0
    0.6085    7.2789    0.0000 C   0  0  0  0  0  0  0  0  0  0  0  0
   -0.5062    8.2826    0.0000 C   0  0  0  0  0  0  0  0  0  0  0  0
   -1.9328    7.8191    0.0000 C   0  0  0  0  0  0  0  0  0  0  0  0
   -3.0475    8.8228    0.0000 C   0  0  0  0  0  0  0  0  0  0  0  0
   -2.7357   10.2900    0.0000 C   0  0  0  0  0  0  0  0  0  0  0  0
   -3.8504   11.2937    0.0000 C   0  0  0  0  0  0  0  0  0  0  0  0
   -5.2770   10.8302    0.0000 O   0  0  0  0  0  0  0  0  0  0  0  0
   -3.5385   12.7610    0.0000 N   0  0  0  0  0  0  0  0  0  0  0  0
   -4.6532   13.7646    0.0000 O   0  0  0  0  0  0  0  0  0  0  0  0
   -2.2447    6.3519    0.0000 C   0  0  0  0  0  0  0  0  0  0  0  0
   -0.7500   -1.2990    0.0000 C   0  0  0  0  0  0  0  0  0  0  0  0
    1.5000   -5.1962    0.0000 C   0  0  0  0  0  0  0  0  0  0  0  0
    0.7500   -6.4952    0.0000 C   0  0  0  0  0  0  0  0  0  0  0  0
  1  2  1  0
  2  3  2  0
  3  4  1  0
  4  5  2  0
  5  6  1  0
  6  7  2  0
  6  8  1  0
  8  9  2  0
  9 10  1  0
 10 11  2  0
 11 12  1  0
 12 13  1  0
 13 14  2  0
 14 15  1  0
 15 16  1  0
 16 17  2  0
 16 18  2  0
 16 19  1  0
 19 20  2  0
 20 21  1  0
 21 22  2  0
 22 23  1  0
 23 24  1  0
 24 25  2  3
 25 26  1  0
 26 27  2  0
 26 28  1  0
 28 29  1  0
 23 30  2  0
 12 31  2  0
  5 32  1  0
 32 33  2  0
 33  2  1  0
 31  8  1  0
 15 11  1  0
 30 19  1  0
M  END
>  <molecule_chembl_id>  (155) 
CHEMBL4207182

>  <canonical_smiles>  (155) 
Cc1ccc(C(=O)c2ccc3c(ccn3S(=O)(=O)c3cccc(C=CC(=O)NO)c3)c2)cc1

>  <pchembl_value_mean>  (155) 
5.14

>  <document_chembl_id>  (155) 
CHEMBL4196108

$$$$

     RDKit          2D

 29 32  0  0  0  0  0  0  0  0999 V2000
   -1.5000   -7.7942    0.0000 C   0  0  0  0  0  0  0  0  0  0  0  0
   -0.7500   -6.4952    0.0000 C   0  0  0  0  0  0  0  0  0  0  0  0
   -1.5000   -5.1962    0.0000 C   0  0  0  0  0  0  0  0  0  0  0  0
   -0.7500   -3.8971    0.0000 C   0  0  0  0  0  0  0  0  0  0  0  0
    0.7500   -3.8971    0.0000 C   0  0  0  0  0  0  0  0  0  0  0  0
    1.5000   -2.5981    0.0000 C   0  0  0  0  0  0  0  0  0  0  0  0
    3.0000   -2.5981    0.0000 O   0  0  0  0  0  0  0  0  0  0  0  0
    0.7500   -1.2990    0.0000 C   0  0  0  0  0  0  0  0  0  0  0  0
    1.5000    0.0000    0.0000 C   0  0  0  0  0  0  0  0  0  0  0  0
    0.7500    1.2990    0.0000 C   0  0  0  0  0  0  0  0  0  0  0  0
   -0.7500    1.2990    0.0000 C   0  0  0  0  0  0  0  0  0  0  0  0
   -1.5000    0.0000    0.0000 C   0  0  0  0  0  0  0  0  0  0  0  0
   -2.9672    0.3119    0.0000 C   0  0  0  0  0  0  0  0  0  0  0  0
   -3.1240    1.8037    0.0000 C   0  0  0  0  0  0  0  0  0  0  0  0
   -1.7537    2.4138    0.0000 N   0  0  0  0  0  0  0  0  0  0  0  0
   -1.4418    3.8810    0.0000 C   0  0  0  0  0  0  0  0  0  0  0  0
   -2.5565    4.8847    0.0000 C   0  0  0  0  0  0  0  0  0  0  0  0
   -2.2447    6.3519    0.0000 C   0  0  0  0  0  0  0  0  0  0  0  0
   -3.3594    7.3556    0.0000 C   0  0  0  0  0  0  0  0  0  0  0  0
   -4.7860    6.8921    0.0000 C   0  0  0  0  0  0  0  0  0  0  0  0
   -5.9007    7.8958    0.0000 C   0  0  0  0  0  0  0  0  0  0  0  0
   -7.3273    7.4322    0.0000 O   0  0  0  0  0  0  0  0  0  0  0  0
   -5.5888    9.3630    0.0000 N   0  0  0  0  0  0  0  0  0  0  0  0
   -6.7035   10.3667    0.0000 O   0  0  0  0  0  0  0  0  0  0  0  0
   -5.0978    5.4248    0.0000 C   0  0  0  0  0  0  0  0  0  0  0  0
   -3.9831    4.4211    0.0000 C   0  0  0  0  0  0  0  0  0  0  0  0
   -0.7500   -1.2990    0.0000 C   0  0  0  0  0  0  0  0  0  0  0  0
    1.5000   -5.1962    0.0000 C   0  0  0  0  0  0  0  0  0  0  0  0
    0.7500   -6.4952    0.0000 C   0  0  0  0  0  0  0  0  0  0  0  0
  1  2  1  0
  2  3  2  0
  3  4  1  0
  4  5  2  0
  5  6  1  0
  6  7  2  0
  6  8  1  0
  8  9  2  0
  9 10  1  0
 10 11  2  0
 11 12  1  0
 12 13  1  0
 13 14  2  0
 14 15  1  0
 15 16  1  0
 16 17  1  0
 17 18  2  0
 18 19  1  0
 19 20  2  0
 20 21  1  0
 21 22  2  0
 21 23  1  0
 23 24  1  0
 20 25  1  0
 25 26  2  0
 12 27  2  0
  5 28  1  0
 28 29  2  0
 29  2  1  0
 27  8  1  0
 15 11  1  0
 26 17  1  0
M  END
>  <molecule_chembl_id>  (156) 
CHEMBL4209463

>  <canonical_smiles>  (156) 
Cc1ccc(C(=O)c2ccc3c(ccn3Cc3ccc(C(=O)NO)cc3)c2)cc1

>  <pchembl_value_mean>  (156) 
5.14

>  <document_chembl_id>  (156) 
CHEMBL4196108

$$$$

     RDKit          2D

 16 17  0  0  0  0  0  0  0  0999 V2000
    3.0000    0.0000    0.0000 N   0  0  0  0  0  0  0  0  0  0  0  0
    1.5000    0.0000    0.0000 C   0  0  0  0  0  0  0  0  0  0  0  0
    0.7500   -1.2990    0.0000 C   0  0  0  0  0  0  0  0  0  0  0  0
   -0.7500   -1.2990    0.0000 C   0  0  0  0  0  0  0  0  0  0  0  0
   -1.5000    0.0000    0.0000 C   0  0  0  0  0  0  0  0  0  0  0  0
   -0.7500    1.2990    0.0000 C   0  0  0  0  0  0  0  0  0  0  0  0
    0.7500    1.2990    0.0000 C   0  0  0  0  0  0  0  0  0  0  0  0
    1.5000    2.5981    0.0000 N   0  0  0  0  0  0  0  0  0  0  0  0
    0.7500    3.8971    0.0000 C   0  0  0  0  0  0  0  0  0  0  0  0
   -0.7500    3.8971    0.0000 O   0  0  0  0  0  0  0  0  0  0  0  0
    1.5000    5.1962    0.0000 C   0  0  0  0  0  0  0  0  0  0  0  0
    3.0000    5.1962    0.0000 C   0  0  0  0  0  0  0  0  0  0  0  0
    3.7500    6.4952    0.0000 C   0  0  0  0  0  0  0  0  0  0  0  0
    3.0000    7.7942    0.0000 C   0  0  0  0  0  0  0  0  0  0  0  0
    1.5000    7.7942    0.0000 N   0  0  0  0  0  0  0  0  0  0  0  0
    0.7500    6.4952    0.0000 C   0  0  0  0  0  0  0  0  0  0  0  0
  1  2  1  0
  2  3  2  0
  3  4  1  0
  4  5  2  0
  5  6  1  0
  6  7  2  0
  7  8  1  0
  8  9  1  0
  9 10  2  0
  9 11  1  0
 11 12  2  0
 12 13  1  0
 13 14  2  0
 14 15  1  0
 15 16  2  0
  7  2  1  0
 16 11  1  0
M  END
>  <molecule_chembl_id>  (157) 
CHEMBL236678

>  <canonical_smiles>  (157) 
Nc1ccccc1NC(=O)c1cccnc1

>  <pchembl_value_mean>  (157) 
5.16

>  <document_chembl_id>  (157) 
CHEMBL1152282

$$$$

     RDKit          2D

 28 30  0  0  0  0  0  0  0  0999 V2000
    0.7500   -6.4952    0.0000 C   0  0  0  0  0  0  0  0  0  0  0  0
    1.5000   -5.1962    0.0000 C   0  0  0  0  0  0  0  0  0  0  0  0
    0.7500   -3.8971    0.0000 C   0  0  0  0  0  0  0  0  0  0  0  0
    1.5000   -2.5981    0.0000 N   0  0  0  0  0  0  0  0  0  0  0  0
    0.7500   -1.2990    0.0000 C   0  0  0  0  0  0  0  0  0  0  0  0
    1.5000    0.0000    0.0000 C   0  0  0  0  0  0  0  0  0  0  0  0
    0.7500    1.2990    0.0000 C   0  0  0  0  0  0  0  0  0  0  0  0
    1.5000    2.5981    0.0000 C   0  0  0  0  0  0  0  0  0  0  0  0
    3.0000    2.5981    0.0000 C   0  0  0  0  0  0  0  0  0  0  0  0
    3.7500    3.8971    0.0000 C   0  0  0  0  0  0  0  0  0  0  0  0
    3.0000    5.1962    0.0000 O   0  0  0  0  0  0  0  0  0  0  0  0
    5.2500    3.8971    0.0000 N   0  0  0  0  0  0  0  0  0  0  0  0
    6.0000    5.1962    0.0000 O   0  0  0  0  0  0  0  0  0  0  0  0
   -0.7500    1.2990    0.0000 C   0  0  0  0  0  0  0  0  0  0  0  0
   -1.5000    0.0000    0.0000 C   0  0  0  0  0  0  0  0  0  0  0  0
   -0.7500   -1.2990    0.0000 C   0  0  0  0  0  0  0  0  0  0  0  0
   -1.5000   -2.5981    0.0000 C   0  0  0  0  0  0  0  0  0  0  0  0
   -3.0000   -2.5981    0.0000 O   0  0  0  0  0  0  0  0  0  0  0  0
   -0.7500   -3.8971    0.0000 N   0  0  0  0  0  0  0  0  0  0  0  0
   -1.5000   -5.1962    0.0000 C   0  0  0  0  0  0  0  0  0  0  0  0
   -3.0000   -5.1962    0.0000 C   0  0  0  0  0  0  0  0  0  0  0  0
   -3.7500   -6.4952    0.0000 C   0  0  0  0  0  0  0  0  0  0  0  0
   -5.2500   -6.4952    0.0000 C   0  0  0  0  0  0  0  0  0  0  0  0
   -6.0000   -7.7942    0.0000 C   0  0  0  0  0  0  0  0  0  0  0  0
   -5.2500   -9.0933    0.0000 C   0  0  0  0  0  0  0  0  0  0  0  0
   -6.0000  -10.3923    0.0000 F   0  0  0  0  0  0  0  0  0  0  0  0
   -3.7500   -9.0933    0.0000 C   0  0  0  0  0  0  0  0  0  0  0  0
   -3.0000   -7.7942    0.0000 C   0  0  0  0  0  0  0  0  0  0  0  0
  1  2  1  0
  2  3  1  0
  3  4  2  0
  4  5  1  0
  5  6  2  0
  6  7  1  0
  7  8  1  0
  8  9  2  3
  9 10  1  0
 10 11  2  0
 10 12  1  0
 12 13  1  0
  7 14  2  0
 14 15  1  0
 15 16  2  0
 16 17  1  0
 17 18  2  0
 17 19  1  0
 19 20  1  0
 20 21  1  0
 21 22  1  0
 22 23  2  0
 23 24  1  0
 24 25  2  0
 25 26  1  0
 25 27  1  0
 27 28  2  0
 19  3  1  0
 28 22  1  0
 16  5  1  0
M  END
>  <molecule_chembl_id>  (158) 
CHEMBL2425966

>  <canonical_smiles>  (158) 
CCc1nc2cc(C=CC(=O)NO)ccc2c(=O)n1CCc1ccc(F)cc1

>  <pchembl_value_mean>  (158) 
5.16

>  <document_chembl_id>  (158) 
CHEMBL2424579

$$$$

     RDKit          2D

 43 47  0  0  0  0  0  0  0  0999 V2000
    7.4466    3.7867    0.0000 C   0  0  0  0  0  0  0  0  0  0  0  0
    6.1476    4.5367    0.0000 O   0  0  0  0  0  0  0  0  0  0  0  0
    4.8486    3.7867    0.0000 C   0  0  0  0  0  0  0  0  0  0  0  0
    3.5495    4.5367    0.0000 C   0  0  0  0  0  0  0  0  0  0  0  0
    2.2505    3.7867    0.0000 C   0  0  0  0  0  0  0  0  0  0  0  0
    2.2505    2.2867    0.0000 C   0  0  0  0  0  0  0  0  0  0  0  0
    3.5495    1.5367    0.0000 C   0  0  0  0  0  0  0  0  0  0  0  0
    3.5495    0.0367    0.0000 O   0  0  0  0  0  0  0  0  0  0  0  0
    4.8486   -0.7133    0.0000 C   0  0  0  0  0  0  0  0  0  0  0  0
    4.8486    2.2867    0.0000 C   0  0  0  0  0  0  0  0  0  0  0  0
    6.1476    1.5367    0.0000 O   0  0  0  0  0  0  0  0  0  0  0  0
    6.1476    0.0367    0.0000 C   0  0  0  0  0  0  0  0  0  0  0  0
    1.0777    1.3515    0.0000 C   0  0  0  0  0  0  0  0  0  0  0  0
    1.7286    0.0000    0.0000 C   0  0  0  0  0  0  0  0  0  0  0  0
    1.0777   -1.3515    0.0000 C   0  0  0  0  0  0  0  0  0  0  0  0
   -0.3846   -1.6852    0.0000 C   0  0  0  0  0  0  0  0  0  0  0  0
   -0.7184   -3.1476    0.0000 O   0  0  0  0  0  0  0  0  0  0  0  0
   -2.1518   -3.5898    0.0000 C   0  0  0  0  0  0  0  0  0  0  0  0
   -1.5574   -0.7500    0.0000 C   0  0  0  0  0  0  0  0  0  0  0  0
   -2.9088   -1.4008    0.0000 O   0  0  0  0  0  0  0  0  0  0  0  0
   -1.5574    0.7500    0.0000 C   0  0  0  0  0  0  0  0  0  0  0  0
   -0.3846    1.6852    0.0000 C   0  0  0  0  0  0  0  0  0  0  0  0
   -1.0355    3.0367    0.0000 C   0  0  0  0  0  0  0  0  0  0  0  0
   -2.5355    3.0367    0.0000 N   0  0  0  0  0  0  0  0  0  0  0  0
   -3.2855    4.3357    0.0000 C   0  0  0  0  0  0  0  0  0  0  0  0
   -4.7855    4.3357    0.0000 C   0  0  0  0  0  0  0  0  0  0  0  0
   -5.5355    5.6348    0.0000 C   0  0  0  0  0  0  0  0  0  0  0  0
   -7.0355    5.6348    0.0000 C   0  0  0  0  0  0  0  0  0  0  0  0
   -7.7855    4.3357    0.0000 C   0  0  0  0  0  0  0  0  0  0  0  0
   -9.2855    4.3357    0.0000 C   0  0  0  0  0  0  0  0  0  0  0  0
  -10.0355    3.0367    0.0000 O   0  0  0  0  0  0  0  0  0  0  0  0
  -10.0355    5.6348    0.0000 N   0  0  0  0  0  0  0  0  0  0  0  0
  -11.5355    5.6348    0.0000 C   0  0  0  0  0  0  0  0  0  0  0  0
  -12.2855    6.9338    0.0000 C   0  0  0  0  0  0  0  0  0  0  0  0
  -13.7855    6.9338    0.0000 C   0  0  0  0  0  0  0  0  0  0  0  0
  -14.5355    5.6348    0.0000 C   0  0  0  0  0  0  0  0  0  0  0  0
  -13.7855    4.3357    0.0000 C   0  0  0  0  0  0  0  0  0  0  0  0
  -12.2855    4.3357    0.0000 C   0  0  0  0  0  0  0  0  0  0  0  0
  -11.5355    3.0367    0.0000 N   0  0  0  0  0  0  0  0  0  0  0  0
   -7.0355    3.0367    0.0000 C   0  0  0  0  0  0  0  0  0  0  0  0
   -5.5355    3.0367    0.0000 C   0  0  0  0  0  0  0  0  0  0  0  0
   -0.3846    4.3881    0.0000 C   0  0  0  0  0  0  0  0  0  0  0  0
    1.0777    4.7219    0.0000 C   0  0  0  0  0  0  0  0  0  0  0  0
  1  2  1  0
  2  3  1  0
  3  4  2  0
  4  5  1  0
  5  6  2  0
  6  7  1  0
  7  8  1  0
  8  9  1  0
  7 10  2  0
 10 11  1  0
 11 12  1  0
  6 13  1  0
 13 14  2  0
 14 15  1  0
 15 16  2  0
 16 17  1  0
 17 18  1  0
 16 19  1  0
 19 20  2  0
 19 21  1  0
 21 22  2  0
 22 23  1  0
 23 24  1  0
 24 25  1  0
 25 26  1  0
 26 27  2  0
 27 28  1  0
 28 29  2  0
 29 30  1  0
 30 31  2  0
 30 32  1  0
 32 33  1  0
 33 34  2  0
 34 35  1  0
 35 36  2  0
 36 37  1  0
 37 38  2  0
 38 39  1  0
 29 40  1  0
 40 41  2  0
 23 42  1  0
 42 43  1  0
 10  3  1  0
 22 13  1  0
 41 26  1  0
 43  5  1  0
 38 33  1  0
M  END
>  <molecule_chembl_id>  (159) 
CHEMBL3417213

>  <canonical_smiles>  (159) 
COc1cc2c(c(OC)c1OC)-c1ccc(OC)c(=O)cc1C(NCc1ccc(C(=O)Nc3ccccc3N)cc1)CC2

>  <pchembl_value_mean>  (159) 
5.17

>  <document_chembl_id>  (159) 
CHEMBL3414494

$$$$

     RDKit          2D

 17 18  0  0  0  0  0  0  0  0999 V2000
    3.7500   -1.2990    0.0000 O   0  0  0  0  0  0  0  0  0  0  0  0
    3.0000   -2.5981    0.0000 C   0  0  0  0  0  0  0  0  0  0  0  0
    3.7500   -3.8971    0.0000 N   0  0  0  0  0  0  0  0  0  0  0  0
    5.2500   -3.8971    0.0000 O   0  0  0  0  0  0  0  0  0  0  0  0
    1.5000   -2.5981    0.0000 C   0  0  0  0  0  0  0  0  0  0  0  0
    0.7500   -1.2990    0.0000 C   0  0  0  0  0  0  0  0  0  0  0  0
    1.5000    0.0000    0.0000 C   0  0  0  0  0  0  0  0  0  0  0  0
    0.7500    1.2990    0.0000 C   0  0  0  0  0  0  0  0  0  0  0  0
   -0.7500    1.2990    0.0000 C   0  0  0  0  0  0  0  0  0  0  0  0
   -1.5000    0.0000    0.0000 C   0  0  0  0  0  0  0  0  0  0  0  0
   -0.7500   -1.2990    0.0000 C   0  0  0  0  0  0  0  0  0  0  0  0
    0.7500   -3.8971    0.0000 C   0  0  0  0  0  0  0  0  0  0  0  0
   -0.7500   -3.8971    0.0000 C   0  0  0  0  0  0  0  0  0  0  0  0
   -1.5000   -5.1962    0.0000 C   0  0  0  0  0  0  0  0  0  0  0  0
   -0.7500   -6.4952    0.0000 C   0  0  0  0  0  0  0  0  0  0  0  0
    0.7500   -6.4952    0.0000 C   0  0  0  0  0  0  0  0  0  0  0  0
    1.5000   -5.1962    0.0000 C   0  0  0  0  0  0  0  0  0  0  0  0
  1  2  2  0
  2  3  1  0
  3  4  1  0
  2  5  1  0
  5  6  1  0
  6  7  2  0
  7  8  1  0
  8  9  2  0
  9 10  1  0
 10 11  2  0
  5 12  1  0
 12 13  2  0
 13 14  1  0
 14 15  2  0
 15 16  1  0
 16 17  2  0
 11  6  1  0
 17 12  1  0
M  END
>  <molecule_chembl_id>  (160) 
CHEMBL396097

>  <canonical_smiles>  (160) 
O=C(NO)C(c1ccccc1)c1ccccc1

>  <pchembl_value_mean>  (160) 
5.18

>  <document_chembl_id>  (160) 
CHEMBL1155182

$$$$

     RDKit          2D

 36 38  0  0  0  0  0  0  0  0999 V2000
    3.0000    0.0000    0.0000 C   0  0  0  0  0  0  0  0  0  0  0  0
    1.5000    0.0000    0.0000 C   0  0  0  0  0  0  0  0  0  0  0  0
    0.7500   -1.2990    0.0000 C   0  0  0  0  0  0  0  0  0  0  0  0
   -0.7500   -1.2990    0.0000 C   0  0  0  0  0  0  0  0  0  0  0  0
   -1.5000   -2.5981    0.0000 C   0  0  0  0  0  0  0  0  0  0  0  0
   -1.5000    0.0000    0.0000 C   0  0  0  0  0  0  0  0  0  0  0  0
   -0.7500    1.2990    0.0000 C   0  0  0  0  0  0  0  0  0  0  0  0
   -1.5000    2.5981    0.0000 C   0  0  0  0  0  0  0  0  0  0  0  0
   -3.0000    2.5981    0.0000 O   0  0  0  0  0  0  0  0  0  0  0  0
   -0.7500    3.8971    0.0000 N   0  0  0  0  0  0  0  0  0  0  0  0
   -1.5000    5.1962    0.0000 C   0  0  0  0  0  0  0  0  0  0  0  0
   -0.7500    6.4952    0.0000 C   0  0  0  0  0  0  0  0  0  0  0  0
   -1.5000    7.7942    0.0000 C   0  0  0  0  0  0  0  0  0  0  0  0
   -0.7500    9.0933    0.0000 C   0  0  0  0  0  0  0  0  0  0  0  0
   -1.5000   10.3923    0.0000 C   0  0  0  0  0  0  0  0  0  0  0  0
   -0.7500   11.6913    0.0000 C   0  0  0  0  0  0  0  0  0  0  0  0
    0.7500   11.6913    0.0000 O   0  0  0  0  0  0  0  0  0  0  0  0
   -1.5000   12.9904    0.0000 N   0  0  0  0  0  0  0  0  0  0  0  0
   -0.7500   14.2894    0.0000 C   0  0  0  0  0  0  0  0  0  0  0  0
    0.7500   14.2894    0.0000 C   0  0  0  0  0  0  0  0  0  0  0  0
    1.5000   15.5885    0.0000 C   0  0  0  0  0  0  0  0  0  0  0  0
    0.7500   16.8875    0.0000 C   0  0  0  0  0  0  0  0  0  0  0  0
   -0.7500   16.8875    0.0000 C   0  0  0  0  0  0  0  0  0  0  0  0
   -1.5000   15.5885    0.0000 C   0  0  0  0  0  0  0  0  0  0  0  0
   -3.0000   15.5885    0.0000 N   0  0  0  0  0  0  0  0  0  0  0  0
    0.7500    3.8971    0.0000 C   0  0  0  0  0  0  0  0  0  0  0  0
    1.5000    5.1962    0.0000 C   0  0  0  0  0  0  0  0  0  0  0  0
    0.7500    6.4952    0.0000 O   0  0  0  0  0  0  0  0  0  0  0  0
    3.0000    5.1962    0.0000 N   0  0  0  0  0  0  0  0  0  0  0  0
    3.7500    6.4952    0.0000 C   0  0  0  0  0  0  0  0  0  0  0  0
    5.2500    6.4952    0.0000 C   0  0  0  0  0  0  0  0  0  0  0  0
    6.0000    7.7942    0.0000 C   0  0  0  0  0  0  0  0  0  0  0  0
    5.2500    9.0933    0.0000 C   0  0  0  0  0  0  0  0  0  0  0  0
    3.7500    9.0933    0.0000 C   0  0  0  0  0  0  0  0  0  0  0  0
    3.0000    7.7942    0.0000 C   0  0  0  0  0  0  0  0  0  0  0  0
    0.7500    1.2990    0.0000 C   0  0  0  0  0  0  0  0  0  0  0  0
  1  2  1  0
  2  3  2  0
  3  4  1  0
  4  5  1  0
  4  6  2  0
  6  7  1  0
  7  8  1  0
  8  9  2  0
  8 10  1  0
 10 11  1  0
 11 12  1  0
 12 13  1  0
 13 14  1  0
 14 15  1  0
 15 16  1  0
 16 17  2  0
 16 18  1  0
 18 19  1  0
 19 20  2  0
 20 21  1  0
 21 22  2  0
 22 23  1  0
 23 24  2  0
 24 25  1  0
 10 26  1  0
 26 27  1  0
 27 28  2  0
 27 29  1  0
 29 30  1  0
 30 31  1  0
 31 32  1  0
 32 33  1  0
 33 34  1  0
 34 35  1  0
  7 36  2  0
 36  2  1  0
 24 19  1  0
 35 30  1  0
M  END
>  <molecule_chembl_id>  (161) 
CHEMBL4456250

>  <canonical_smiles>  (161) 
Cc1cc(C)cc(C(=O)N(CCCCCC(=O)Nc2ccccc2N)CC(=O)NC2CCCCC2)c1

>  <pchembl_value_mean>  (161) 
5.18

>  <document_chembl_id>  (161) 
CHEMBL4334526

$$$$

     RDKit          2D

 27 30  0  0  0  0  0  0  0  0999 V2000
   -1.5000   -7.7942    0.0000 N   0  0  0  0  0  0  0  0  0  0  0  0
   -3.0000   -7.7942    0.0000 C   0  0  0  0  0  0  0  0  0  0  0  0
   -3.7500   -9.0933    0.0000 C   0  0  0  0  0  0  0  0  0  0  0  0
   -5.2500   -9.0933    0.0000 C   0  0  0  0  0  0  0  0  0  0  0  0
   -6.0000   -7.7942    0.0000 C   0  0  0  0  0  0  0  0  0  0  0  0
   -7.5000   -7.7942    0.0000 C   0  0  0  0  0  0  0  0  0  0  0  0
   -8.2500   -6.4952    0.0000 C   0  0  0  0  0  0  0  0  0  0  0  0
   -9.7500   -6.4952    0.0000 C   0  0  0  0  0  0  0  0  0  0  0  0
  -10.5000   -7.7942    0.0000 C   0  0  0  0  0  0  0  0  0  0  0  0
  -12.0000   -7.7942    0.0000 F   0  0  0  0  0  0  0  0  0  0  0  0
   -9.7500   -9.0933    0.0000 C   0  0  0  0  0  0  0  0  0  0  0  0
   -8.2500   -9.0933    0.0000 C   0  0  0  0  0  0  0  0  0  0  0  0
   -5.2500   -6.4952    0.0000 C   0  0  0  0  0  0  0  0  0  0  0  0
   -3.7500   -6.4952    0.0000 C   0  0  0  0  0  0  0  0  0  0  0  0
   -3.0000   -5.1962    0.0000 N   0  0  0  0  0  0  0  0  0  0  0  0
   -1.5000   -5.1962    0.0000 C   0  0  0  0  0  0  0  0  0  0  0  0
   -0.7500   -6.4952    0.0000 O   0  0  0  0  0  0  0  0  0  0  0  0
   -0.7500   -3.8971    0.0000 C   0  0  0  0  0  0  0  0  0  0  0  0
    0.7500   -3.8971    0.0000 C   0  0  0  0  0  0  0  0  0  0  0  0
    1.5000   -2.5981    0.0000 C   0  0  0  0  0  0  0  0  0  0  0  0
    0.7500   -1.2990    0.0000 C   0  0  0  0  0  0  0  0  0  0  0  0
    1.5000    0.0000    0.0000 C   0  0  0  0  0  0  0  0  0  0  0  0
    0.7500    1.2990    0.0000 C   0  0  0  0  0  0  0  0  0  0  0  0
   -0.7500    1.2990    0.0000 C   0  0  0  0  0  0  0  0  0  0  0  0
   -1.5000    0.0000    0.0000 C   0  0  0  0  0  0  0  0  0  0  0  0
   -0.7500   -1.2990    0.0000 C   0  0  0  0  0  0  0  0  0  0  0  0
   -1.5000   -2.5981    0.0000 O   0  0  0  0  0  0  0  0  0  0  0  0
  1  2  1  0
  2  3  2  0
  3  4  1  0
  4  5  2  0
  5  6  1  0
  6  7  2  0
  7  8  1  0
  8  9  2  0
  9 10  1  0
  9 11  1  0
 11 12  2  0
  5 13  1  0
 13 14  2  0
 14 15  1  0
 15 16  1  0
 16 17  2  0
 16 18  1  0
 18 19  1  0
 19 20  1  0
 20 21  1  0
 21 22  2  0
 22 23  1  0
 23 24  2  0
 24 25  1  0
 25 26  2  0
 26 27  1  0
 14  2  1  0
 27 18  1  0
 12  6  1  0
 26 21  1  0
M  END
>  <molecule_chembl_id>  (162) 
CHEMBL3828015

>  <canonical_smiles>  (162) 
Nc1ccc(-c2ccc(F)cc2)cc1NC(=O)C1CCc2ccccc2O1

>  <pchembl_value_mean>  (162) 
5.18

>  <document_chembl_id>  (162) 
CHEMBL3826926

$$$$

     RDKit          2D

 15 15  0  0  0  0  0  0  0  0999 V2000
    2.7760   -2.5981    0.0000 O   0  0  0  0  0  0  0  0  0  0  0  0
    3.5260   -1.2990    0.0000 C   0  0  0  0  0  0  0  0  0  0  0  0
    5.0260   -1.2990    0.0000 C   0  0  0  0  0  0  0  0  0  0  0  0
    5.7760   -2.5981    0.0000 C   0  0  0  0  0  0  0  0  0  0  0  0
    7.2760   -2.5981    0.0000 C   0  0  0  0  0  0  0  0  0  0  0  0
    8.0260   -3.8971    0.0000 C   0  0  0  0  0  0  0  0  0  0  0  0
    9.5260   -3.8971    0.0000 C   0  0  0  0  0  0  0  0  0  0  0  0
   10.2760   -5.1962    0.0000 C   0  0  0  0  0  0  0  0  0  0  0  0
   11.7760   -5.1962    0.0000 S   0  0  0  0  0  0  0  0  0  0  0  0
    2.7760    0.0000    0.0000 N   0  0  0  0  0  0  0  0  0  0  0  0
    1.2760    0.0000    0.0000 C   0  0  0  0  0  0  0  0  0  0  0  0
    0.3943    1.2135    0.0000 C   0  0  0  0  0  0  0  0  0  0  0  0
   -1.0323    0.7500    0.0000 C   0  0  0  0  0  0  0  0  0  0  0  0
   -1.0323   -0.7500    0.0000 C   0  0  0  0  0  0  0  0  0  0  0  0
    0.3943   -1.2135    0.0000 C   0  0  0  0  0  0  0  0  0  0  0  0
  1  2  2  0
  2  3  1  0
  3  4  1  0
  4  5  1  0
  5  6  1  0
  6  7  1  0
  7  8  1  0
  8  9  1  0
  2 10  1  0
 10 11  1  0
 11 12  1  0
 12 13  1  0
 13 14  1  0
 14 15  1  0
 15 11  1  0
M  END
>  <molecule_chembl_id>  (163) 
CHEMBL3356930

>  <canonical_smiles>  (163) 
O=C(CCCCCCS)NC1CCCC1

>  <pchembl_value_mean>  (163) 
5.18

>  <document_chembl_id>  (163) 
CHEMBL3352570

$$$$

     RDKit          2D

 29 32  0  0  0  0  0  0  0  0999 V2000
    1.5342   -9.4474    0.0000 O   0  0  0  0  0  0  0  0  0  0  0  0
    0.3207   -8.5658    0.0000 C   0  0  0  0  0  0  0  0  0  0  0  0
    0.4775   -7.0740    0.0000 C   0  0  0  0  0  0  0  0  0  0  0  0
    1.8478   -6.4639    0.0000 C   0  0  0  0  0  0  0  0  0  0  0  0
    2.0046   -4.9721    0.0000 C   0  0  0  0  0  0  0  0  0  0  0  0
    0.8899   -3.9684    0.0000 C   0  0  0  0  0  0  0  0  0  0  0  0
    1.5000   -2.5981    0.0000 N   0  0  0  0  0  0  0  0  0  0  0  0
    0.7500   -1.2990    0.0000 C   0  0  0  0  0  0  0  0  0  0  0  0
    1.5000    0.0000    0.0000 C   0  0  0  0  0  0  0  0  0  0  0  0
    0.7500    1.2990    0.0000 C   0  0  0  0  0  0  0  0  0  0  0  0
   -0.7500    1.2990    0.0000 C   0  0  0  0  0  0  0  0  0  0  0  0
   -1.5000    0.0000    0.0000 C   0  0  0  0  0  0  0  0  0  0  0  0
   -0.7500   -1.2990    0.0000 C   0  0  0  0  0  0  0  0  0  0  0  0
    2.9918   -2.7549    0.0000 N   0  0  0  0  0  0  0  0  0  0  0  0
    3.3037   -4.2221    0.0000 C   0  0  0  0  0  0  0  0  0  0  0  0
    4.6740   -4.8322    0.0000 C   0  0  0  0  0  0  0  0  0  0  0  0
    4.8308   -6.3240    0.0000 C   0  0  0  0  0  0  0  0  0  0  0  0
    6.2011   -6.9341    0.0000 C   0  0  0  0  0  0  0  0  0  0  0  0
    7.4146   -6.0524    0.0000 C   0  0  0  0  0  0  0  0  0  0  0  0
    8.7849   -6.6625    0.0000 Br  0  0  0  0  0  0  0  0  0  0  0  0
    7.2578   -4.5606    0.0000 C   0  0  0  0  0  0  0  0  0  0  0  0
    5.8875   -3.9505    0.0000 C   0  0  0  0  0  0  0  0  0  0  0  0
   -1.0496   -9.1759    0.0000 N   0  0  0  0  0  0  0  0  0  0  0  0
   -1.2064  -10.6676    0.0000 C   0  0  0  0  0  0  0  0  0  0  0  0
   -2.5767  -11.2778    0.0000 C   0  0  0  0  0  0  0  0  0  0  0  0
   -2.7335  -12.7695    0.0000 C   0  0  0  0  0  0  0  0  0  0  0  0
   -1.5200  -13.6512    0.0000 C   0  0  0  0  0  0  0  0  0  0  0  0
   -0.1497  -13.0411    0.0000 C   0  0  0  0  0  0  0  0  0  0  0  0
    0.0071  -11.5493    0.0000 C   0  0  0  0  0  0  0  0  0  0  0  0
  1  2  2  0
  2  3  1  0
  3  4  2  3
  4  5  1  0
  5  6  2  0
  6  7  1  0
  7  8  1  0
  8  9  2  0
  9 10  1  0
 10 11  2  0
 11 12  1  0
 12 13  2  0
  7 14  1  0
 14 15  2  0
 15 16  1  0
 16 17  2  0
 17 18  1  0
 18 19  2  0
 19 20  1  0
 19 21  1  0
 21 22  2  0
  2 23  1  0
 23 24  1  0
 24 25  2  0
 25 26  1  0
 26 27  2  0
 27 28  1  0
 28 29  2  0
 15  5  1  0
 22 16  1  0
 29 24  1  0
 13  8  1  0
M  END
>  <molecule_chembl_id>  (164) 
CHEMBL2047613

>  <canonical_smiles>  (164) 
O=C(C=Cc1cn(-c2ccccc2)nc1-c1ccc(Br)cc1)Nc1ccccc1

>  <pchembl_value_mean>  (164) 
5.19

>  <document_chembl_id>  (164) 
CHEMBL2046430

$$$$

     RDKit          2D

 39 43  0  0  0  0  0  0  0  0999 V2000
    6.0000   -0.0000    0.0000 C   0  0  0  0  0  0  0  0  0  0  0  0
    5.2500   -1.2990    0.0000 C   0  0  0  0  0  0  0  0  0  0  0  0
    3.7500   -1.2990    0.0000 O   0  0  0  0  0  0  0  0  0  0  0  0
    3.0000   -2.5981    0.0000 C   0  0  0  0  0  0  0  0  0  0  0  0
    3.7500   -3.8971    0.0000 C   0  0  0  0  0  0  0  0  0  0  0  0
    3.0000   -5.1962    0.0000 C   0  0  0  0  0  0  0  0  0  0  0  0
    1.5000   -5.1962    0.0000 C   0  0  0  0  0  0  0  0  0  0  0  0
    0.7500   -6.4952    0.0000 C   0  0  0  0  0  0  0  0  0  0  0  0
   -0.7500   -6.4952    0.0000 C   0  0  0  0  0  0  0  0  0  0  0  0
   -1.5000   -5.1962    0.0000 C   0  0  0  0  0  0  0  0  0  0  0  0
   -3.0000   -5.1962    0.0000 C   0  0  0  0  0  0  0  0  0  0  0  0
   -3.7500   -6.4952    0.0000 N   0  0  0  0  0  0  0  0  0  0  0  0
   -5.2500   -6.4952    0.0000 C   0  0  0  0  0  0  0  0  0  0  0  0
   -6.0000   -5.1962    0.0000 C   0  0  0  0  0  0  0  0  0  0  0  0
   -7.5000   -5.1962    0.0000 C   0  0  0  0  0  0  0  0  0  0  0  0
   -8.2500   -6.4952    0.0000 C   0  0  0  0  0  0  0  0  0  0  0  0
   -9.7500   -6.4952    0.0000 C   0  0  0  0  0  0  0  0  0  0  0  0
  -10.5000   -7.7942    0.0000 O   0  0  0  0  0  0  0  0  0  0  0  0
  -10.5000   -5.1962    0.0000 N   0  0  0  0  0  0  0  0  0  0  0  0
  -12.0000   -5.1962    0.0000 O   0  0  0  0  0  0  0  0  0  0  0  0
   -7.5000   -7.7942    0.0000 C   0  0  0  0  0  0  0  0  0  0  0  0
   -6.0000   -7.7942    0.0000 N   0  0  0  0  0  0  0  0  0  0  0  0
   -3.0000   -7.7942    0.0000 C   0  0  0  0  0  0  0  0  0  0  0  0
   -1.5000   -7.7942    0.0000 C   0  0  0  0  0  0  0  0  0  0  0  0
    0.7500   -3.8971    0.0000 C   0  0  0  0  0  0  0  0  0  0  0  0
    1.5000   -2.5981    0.0000 C   0  0  0  0  0  0  0  0  0  0  0  0
    0.7500   -1.2990    0.0000 C   0  0  0  0  0  0  0  0  0  0  0  0
    1.5000    0.0000    0.0000 N   0  0  0  0  0  0  0  0  0  0  0  0
    0.7500    1.2990    0.0000 C   0  0  0  0  0  0  0  0  0  0  0  0
    1.2135    2.7256    0.0000 C   0  0  0  0  0  0  0  0  0  0  0  0
    2.6401    3.1891    0.0000 C   0  0  0  0  0  0  0  0  0  0  0  0
    2.9520    4.6564    0.0000 C   0  0  0  0  0  0  0  0  0  0  0  0
    0.0000    3.6073    0.0000 N   0  0  0  0  0  0  0  0  0  0  0  0
   -1.2135    2.7256    0.0000 N   0  0  0  0  0  0  0  0  0  0  0  0
   -2.6401    3.1891    0.0000 C   0  0  0  0  0  0  0  0  0  0  0  0
   -0.7500    1.2990    0.0000 C   0  0  0  0  0  0  0  0  0  0  0  0
   -1.5000    0.0000    0.0000 C   0  0  0  0  0  0  0  0  0  0  0  0
   -3.0000    0.0000    0.0000 O   0  0  0  0  0  0  0  0  0  0  0  0
   -0.7500   -1.2990    0.0000 N   0  0  0  0  0  0  0  0  0  0  0  0
  1  2  1  0
  2  3  1  0
  3  4  1  0
  4  5  2  0
  5  6  1  0
  6  7  2  0
  7  8  1  0
  8  9  1  0
  9 10  1  0
 10 11  1  0
 11 12  1  0
 12 13  1  0
 13 14  2  0
 14 15  1  0
 15 16  2  0
 16 17  1  0
 17 18  2  0
 17 19  1  0
 19 20  1  0
 16 21  1  0
 21 22  2  0
 12 23  1  0
 23 24  1  0
  7 25  1  0
 25 26  2  0
 26 27  1  0
 27 28  2  0
 28 29  1  0
 29 30  1  0
 30 31  1  0
 31 32  1  0
 30 33  2  0
 33 34  1  0
 34 35  1  0
 34 36  1  0
 36 37  1  0
 37 38  2  0
 37 39  1  0
 26  4  1  0
 39 27  1  0
 24  9  1  0
 36 29  2  0
 22 13  1  0
M  END
>  <molecule_chembl_id>  (165) 
CHEMBL3914813

>  <canonical_smiles>  (165) 
CCOc1ccc(CC2CCN(c3ccc(C(=O)NO)cn3)CC2)cc1-c1nc2c(CC)nn(C)c2c(=O)[nH]1

>  <pchembl_value_mean>  (165) 
5.19

>  <document_chembl_id>  (165) 
CHEMBL3860059

$$$$

     RDKit          2D

 31 34  0  0  0  0  0  0  0  0999 V2000
    3.7500   -1.2990    0.0000 C   0  0  0  0  0  0  0  0  0  0  0  0
    3.0000    0.0000    0.0000 O   0  0  0  0  0  0  0  0  0  0  0  0
    1.5000    0.0000    0.0000 C   0  0  0  0  0  0  0  0  0  0  0  0
    0.7500   -1.2990    0.0000 C   0  0  0  0  0  0  0  0  0  0  0  0
   -0.7500   -1.2990    0.0000 C   0  0  0  0  0  0  0  0  0  0  0  0
   -1.5000    0.0000    0.0000 C   0  0  0  0  0  0  0  0  0  0  0  0
   -3.0000    0.0000    0.0000 N   0  0  0  0  0  0  0  0  0  0  0  0
   -3.7500    1.2990    0.0000 C   0  0  0  0  0  0  0  0  0  0  0  0
   -3.0000    2.5981    0.0000 O   0  0  0  0  0  0  0  0  0  0  0  0
   -5.2500    1.2990    0.0000 C   0  0  0  0  0  0  0  0  0  0  0  0
   -6.0000    2.5981    0.0000 C   0  0  0  0  0  0  0  0  0  0  0  0
   -7.5000    2.5981    0.0000 C   0  0  0  0  0  0  0  0  0  0  0  0
   -8.3817    1.3846    0.0000 C   0  0  0  0  0  0  0  0  0  0  0  0
   -9.8083    1.8481    0.0000 N   0  0  0  0  0  0  0  0  0  0  0  0
  -11.0218    0.9664    0.0000 C   0  0  0  0  0  0  0  0  0  0  0  0
  -12.3921    1.5765    0.0000 C   0  0  0  0  0  0  0  0  0  0  0  0
  -13.6056    0.6948    0.0000 C   0  0  0  0  0  0  0  0  0  0  0  0
  -13.4488   -0.7970    0.0000 C   0  0  0  0  0  0  0  0  0  0  0  0
  -12.0785   -1.4071    0.0000 C   0  0  0  0  0  0  0  0  0  0  0  0
  -10.8650   -0.5254    0.0000 C   0  0  0  0  0  0  0  0  0  0  0  0
   -9.8083    3.3481    0.0000 N   0  0  0  0  0  0  0  0  0  0  0  0
   -8.3817    3.8116    0.0000 C   0  0  0  0  0  0  0  0  0  0  0  0
   -7.9182    5.2382    0.0000 C   0  0  0  0  0  0  0  0  0  0  0  0
   -6.4509    5.5501    0.0000 C   0  0  0  0  0  0  0  0  0  0  0  0
   -5.9874    6.9766    0.0000 C   0  0  0  0  0  0  0  0  0  0  0  0
   -6.9911    8.0914    0.0000 C   0  0  0  0  0  0  0  0  0  0  0  0
   -6.5276    9.5179    0.0000 C   0  0  0  0  0  0  0  0  0  0  0  0
   -8.4583    7.7795    0.0000 C   0  0  0  0  0  0  0  0  0  0  0  0
   -8.9218    6.3529    0.0000 C   0  0  0  0  0  0  0  0  0  0  0  0
   -0.7500    1.2990    0.0000 C   0  0  0  0  0  0  0  0  0  0  0  0
    0.7500    1.2990    0.0000 C   0  0  0  0  0  0  0  0  0  0  0  0
  1  2  1  0
  2  3  1  0
  3  4  2  0
  4  5  1  0
  5  6  2  0
  6  7  1  0
  7  8  1  0
  8  9  2  0
  8 10  1  0
 10 11  2  3
 11 12  1  0
 12 13  2  0
 13 14  1  0
 14 15  1  0
 15 16  2  0
 16 17  1  0
 17 18  2  0
 18 19  1  0
 19 20  2  0
 14 21  1  0
 21 22  2  0
 22 23  1  0
 23 24  2  0
 24 25  1  0
 25 26  2  0
 26 27  1  0
 26 28  1  0
 28 29  2  0
  6 30  1  0
 30 31  2  0
 31  3  1  0
 22 12  1  0
 29 23  1  0
 20 15  1  0
M  END
>  <molecule_chembl_id>  (166) 
CHEMBL2047608

>  <canonical_smiles>  (166) 
COc1ccc(NC(=O)C=Cc2cn(-c3ccccc3)nc2-c2ccc(C)cc2)cc1

>  <pchembl_value_mean>  (166) 
5.19

>  <document_chembl_id>  (166) 
CHEMBL2046430

$$$$

     RDKit          2D

 22 22  0  0  0  0  0  0  0  0999 V2000
    3.7500   -1.2990    0.0000 C   0  0  0  0  0  0  0  0  0  0  0  0
    3.0000    0.0000    0.0000 N   0  0  0  0  0  0  0  0  0  0  0  0
    3.7500    1.2990    0.0000 C   0  0  0  0  0  0  0  0  0  0  0  0
    1.5000    0.0000    0.0000 C   0  0  0  0  0  0  0  0  0  0  0  0
    0.7500   -1.2990    0.0000 C   0  0  0  0  0  0  0  0  0  0  0  0
   -0.7500   -1.2990    0.0000 C   0  0  0  0  0  0  0  0  0  0  0  0
   -1.5000    0.0000    0.0000 C   0  0  0  0  0  0  0  0  0  0  0  0
   -3.0000    0.0000    0.0000 C   0  0  0  0  0  0  0  0  0  0  0  0
   -3.7500   -1.2990    0.0000 O   0  0  0  0  0  0  0  0  0  0  0  0
   -3.7500    1.2990    0.0000 N   0  0  0  0  0  0  0  0  0  0  0  0
   -5.2500    1.2990    0.0000 C   0  0  0  0  0  0  0  0  0  0  0  0
   -6.0000    2.5981    0.0000 C   0  0  0  0  0  0  0  0  0  0  0  0
   -7.5000    2.5981    0.0000 C   0  0  0  0  0  0  0  0  0  0  0  0
   -8.2500    3.8971    0.0000 C   0  0  0  0  0  0  0  0  0  0  0  0
   -9.7500    3.8971    0.0000 C   0  0  0  0  0  0  0  0  0  0  0  0
  -10.5000    5.1962    0.0000 N   0  0  0  0  0  0  0  0  0  0  0  0
  -12.0000    5.1962    0.0000 C   0  0  0  0  0  0  0  0  0  0  0  0
  -12.7500    3.8971    0.0000 O   0  0  0  0  0  0  0  0  0  0  0  0
  -12.7500    6.4952    0.0000 C   0  0  0  0  0  0  0  0  0  0  0  0
  -14.2500    6.4952    0.0000 S   0  0  0  0  0  0  0  0  0  0  0  0
   -0.7500    1.2990    0.0000 C   0  0  0  0  0  0  0  0  0  0  0  0
    0.7500    1.2990    0.0000 C   0  0  0  0  0  0  0  0  0  0  0  0
  1  2  1  0
  2  3  1  0
  2  4  1  0
  4  5  2  0
  5  6  1  0
  6  7  2  0
  7  8  1  0
  8  9  2  0
  8 10  1  0
 10 11  1  0
 11 12  1  0
 12 13  1  0
 13 14  1  0
 14 15  1  0
 15 16  1  0
 16 17  1  0
 17 18  2  0
 17 19  1  0
 19 20  1  0
  7 21  1  0
 21 22  2  0
 22  4  1  0
M  END
>  <molecule_chembl_id>  (167) 
CHEMBL180911

>  <canonical_smiles>  (167) 
CN(C)c1ccc(C(=O)NCCCCCNC(=O)CS)cc1

>  <pchembl_value_mean>  (167) 
5.19

>  <document_chembl_id>  (167) 
CHEMBL1145385

$$$$

     RDKit          2D

 28 31  0  0  0  0  0  0  0  0999 V2000
    8.6575    5.6260    0.0000 N   0  0  0  0  0  0  0  0  0  0  0  0
    9.6612    4.5113    0.0000 C   0  0  0  0  0  0  0  0  0  0  0  0
   11.1284    4.8232    0.0000 C   0  0  0  0  0  0  0  0  0  0  0  0
   12.1321    3.7085    0.0000 C   0  0  0  0  0  0  0  0  0  0  0  0
   11.6685    2.2819    0.0000 C   0  0  0  0  0  0  0  0  0  0  0  0
   10.2013    1.9700    0.0000 C   0  0  0  0  0  0  0  0  0  0  0  0
    9.1976    3.0847    0.0000 C   0  0  0  0  0  0  0  0  0  0  0  0
    7.7304    2.7729    0.0000 N   0  0  0  0  0  0  0  0  0  0  0  0
    6.7267    3.8876    0.0000 C   0  0  0  0  0  0  0  0  0  0  0  0
    7.1902    5.3142    0.0000 O   0  0  0  0  0  0  0  0  0  0  0  0
    5.2595    3.5757    0.0000 C   0  0  0  0  0  0  0  0  0  0  0  0
    4.2558    4.6904    0.0000 C   0  0  0  0  0  0  0  0  0  0  0  0
    2.7886    4.3786    0.0000 C   0  0  0  0  0  0  0  0  0  0  0  0
    2.3250    2.9520    0.0000 C   0  0  0  0  0  0  0  0  0  0  0  0
    0.8578    2.6401    0.0000 C   0  0  0  0  0  0  0  0  0  0  0  0
    0.3943    1.2135    0.0000 N   0  0  0  0  0  0  0  0  0  0  0  0
    1.2760    0.0000    0.0000 C   0  0  0  0  0  0  0  0  0  0  0  0
    0.3943   -1.2135    0.0000 C   0  0  0  0  0  0  0  0  0  0  0  0
   -1.0323   -0.7500    0.0000 C   0  0  0  0  0  0  0  0  0  0  0  0
   -2.3313   -1.5000    0.0000 C   0  0  0  0  0  0  0  0  0  0  0  0
   -2.3313   -3.0000    0.0000 Cl  0  0  0  0  0  0  0  0  0  0  0  0
   -3.6304   -0.7500    0.0000 N   0  0  0  0  0  0  0  0  0  0  0  0
   -3.6304    0.7500    0.0000 C   0  0  0  0  0  0  0  0  0  0  0  0
   -4.9294    1.5000    0.0000 Cl  0  0  0  0  0  0  0  0  0  0  0  0
   -2.3313    1.5000    0.0000 N   0  0  0  0  0  0  0  0  0  0  0  0
   -1.0323    0.7500    0.0000 C   0  0  0  0  0  0  0  0  0  0  0  0
    3.3287    1.8373    0.0000 C   0  0  0  0  0  0  0  0  0  0  0  0
    4.7960    2.1491    0.0000 C   0  0  0  0  0  0  0  0  0  0  0  0
  1  2  1  0
  2  3  2  0
  3  4  1  0
  4  5  2  0
  5  6  1  0
  6  7  2  0
  7  8  1  0
  8  9  1  0
  9 10  2  0
  9 11  1  0
 11 12  2  0
 12 13  1  0
 13 14  2  0
 14 15  1  0
 15 16  1  0
 16 17  1  0
 17 18  2  0
 18 19  1  0
 19 20  2  0
 20 21  1  0
 20 22  1  0
 22 23  2  0
 23 24  1  0
 23 25  1  0
 25 26  2  0
 14 27  1  0
 27 28  2  0
  7  2  1  0
 28 11  1  0
 26 16  1  0
 26 19  1  0
M  END
>  <molecule_chembl_id>  (168) 
CHEMBL4782990

>  <canonical_smiles>  (168) 
Nc1ccccc1NC(=O)c1ccc(Cn2ccc3c(Cl)nc(Cl)nc32)cc1

>  <pchembl_value_mean>  (168) 
5.19

>  <document_chembl_id>  (168) 
CHEMBL4765296

$$$$

     RDKit          2D

 16 16  0  0  0  0  0  0  0  0999 V2000
    6.0000    0.0000    0.0000 O   0  0  0  0  0  0  0  0  0  0  0  0
    5.2500   -1.2990    0.0000 C   0  0  0  0  0  0  0  0  0  0  0  0
    3.7500   -1.2990    0.0000 C   0  0  0  0  0  0  0  0  0  0  0  0
    3.0000    0.0000    0.0000 C   0  0  0  0  0  0  0  0  0  0  0  0
    1.5000    0.0000    0.0000 C   0  0  0  0  0  0  0  0  0  0  0  0
    0.7500   -1.2990    0.0000 C   0  0  0  0  0  0  0  0  0  0  0  0
   -0.7500   -1.2990    0.0000 C   0  0  0  0  0  0  0  0  0  0  0  0
   -1.5000    0.0000    0.0000 C   0  0  0  0  0  0  0  0  0  0  0  0
   -3.0000    0.0000    0.0000 C   0  0  0  0  0  0  0  0  0  0  0  0
   -4.5000    0.0000    0.0000 F   0  0  0  0  0  0  0  0  0  0  0  0
   -3.0000    1.5000    0.0000 F   0  0  0  0  0  0  0  0  0  0  0  0
   -3.0000   -1.5000    0.0000 F   0  0  0  0  0  0  0  0  0  0  0  0
   -0.7500    1.2990    0.0000 C   0  0  0  0  0  0  0  0  0  0  0  0
    0.7500    1.2990    0.0000 C   0  0  0  0  0  0  0  0  0  0  0  0
    6.0000   -2.5981    0.0000 N   0  0  0  0  0  0  0  0  0  0  0  0
    7.5000   -2.5981    0.0000 O   0  0  0  0  0  0  0  0  0  0  0  0
  1  2  2  0
  2  3  1  0
  3  4  2  3
  4  5  1  0
  5  6  2  0
  6  7  1  0
  7  8  2  0
  8  9  1  0
  9 10  1  0
  9 11  1  0
  9 12  1  0
  8 13  1  0
 13 14  2  0
  2 15  1  0
 15 16  1  0
 14  5  1  0
M  END
>  <molecule_chembl_id>  (169) 
CHEMBL3394285

>  <canonical_smiles>  (169) 
O=C(C=Cc1ccc(C(F)(F)F)cc1)NO

>  <pchembl_value_mean>  (169) 
5.2

>  <document_chembl_id>  (169) 
CHEMBL3751715

$$$$

     RDKit          2D

 25 26  0  0  0  0  0  0  0  0999 V2000
    6.7500   -1.2990    0.0000 C   0  0  0  0  0  0  0  0  0  0  0  0
    5.2500   -1.2990    0.0000 C   0  0  0  0  0  0  0  0  0  0  0  0
    3.7500   -1.2990    0.0000 C   0  0  0  0  0  0  0  0  0  0  0  0
    3.0000    0.0000    0.0000 O   0  0  0  0  0  0  0  0  0  0  0  0
    1.5000    0.0000    0.0000 C   0  0  0  0  0  0  0  0  0  0  0  0
    0.7500   -1.2990    0.0000 C   0  0  0  0  0  0  0  0  0  0  0  0
   -0.7500   -1.2990    0.0000 C   0  0  0  0  0  0  0  0  0  0  0  0
   -1.5000    0.0000    0.0000 C   0  0  0  0  0  0  0  0  0  0  0  0
   -3.0000    0.0000    0.0000 C   0  0  0  0  0  0  0  0  0  0  0  0
   -3.7500    1.2990    0.0000 N   0  0  0  0  0  0  0  0  0  0  0  0
   -5.2500    1.2990    0.0000 N   0  0  0  0  0  0  0  0  0  0  0  0
   -6.0000    2.5981    0.0000 C   0  0  0  0  0  0  0  0  0  0  0  0
   -5.2500    3.8971    0.0000 O   0  0  0  0  0  0  0  0  0  0  0  0
   -7.5000    2.5981    0.0000 C   0  0  0  0  0  0  0  0  0  0  0  0
   -8.2500    3.8971    0.0000 C   0  0  0  0  0  0  0  0  0  0  0  0
   -9.7500    3.8971    0.0000 C   0  0  0  0  0  0  0  0  0  0  0  0
  -10.5000    2.5981    0.0000 C   0  0  0  0  0  0  0  0  0  0  0  0
   -9.7500    1.2990    0.0000 C   0  0  0  0  0  0  0  0  0  0  0  0
  -10.5000    0.0000    0.0000 C   0  0  0  0  0  0  0  0  0  0  0  0
   -9.7500   -1.2990    0.0000 O   0  0  0  0  0  0  0  0  0  0  0  0
  -12.0000    0.0000    0.0000 N   0  0  0  0  0  0  0  0  0  0  0  0
  -12.7500   -1.2990    0.0000 O   0  0  0  0  0  0  0  0  0  0  0  0
   -8.2500    1.2990    0.0000 C   0  0  0  0  0  0  0  0  0  0  0  0
   -0.7500    1.2990    0.0000 C   0  0  0  0  0  0  0  0  0  0  0  0
    0.7500    1.2990    0.0000 C   0  0  0  0  0  0  0  0  0  0  0  0
  1  2  3  0
  2  3  1  0
  3  4  1  0
  4  5  1  0
  5  6  2  0
  6  7  1  0
  7  8  2  0
  8  9  1  0
  9 10  2  3
 10 11  1  0
 11 12  1  0
 12 13  2  0
 12 14  1  0
 14 15  2  0
 15 16  1  0
 16 17  2  0
 17 18  1  0
 18 19  1  0
 19 20  2  0
 19 21  1  0
 21 22  1  0
 18 23  2  0
  8 24  1  0
 24 25  2  0
 25  5  1  0
 23 14  1  0
M  END
>  <molecule_chembl_id>  (170) 
CHEMBL1771485

>  <canonical_smiles>  (170) 
C#CCOc1ccc(C=NNC(=O)c2cccc(C(=O)NO)c2)cc1

>  <pchembl_value_mean>  (170) 
5.2

>  <document_chembl_id>  (170) 
CHEMBL1770095

$$$$

     RDKit          2D

 22 23  0  0  0  0  0  0  0  0999 V2000
   10.4688  -10.2562    0.0000 O   0  0  0  0  0  0  0  0  0  0  0  0
    9.2553  -11.1379    0.0000 C   0  0  0  0  0  0  0  0  0  0  0  0
    7.8850  -10.5278    0.0000 C   0  0  0  0  0  0  0  0  0  0  0  0
    7.7282   -9.0360    0.0000 C   0  0  0  0  0  0  0  0  0  0  0  0
    6.3579   -8.4259    0.0000 C   0  0  0  0  0  0  0  0  0  0  0  0
    6.2011   -6.9341    0.0000 C   0  0  0  0  0  0  0  0  0  0  0  0
    4.8308   -6.3240    0.0000 C   0  0  0  0  0  0  0  0  0  0  0  0
    4.6740   -4.8322    0.0000 C   0  0  0  0  0  0  0  0  0  0  0  0
    3.3037   -4.2221    0.0000 C   0  0  0  0  0  0  0  0  0  0  0  0
    2.9918   -2.7549    0.0000 N   0  0  0  0  0  0  0  0  0  0  0  0
    1.5000   -2.5981    0.0000 C   0  0  0  0  0  0  0  0  0  0  0  0
    0.7500   -1.2990    0.0000 C   0  0  0  0  0  0  0  0  0  0  0  0
    1.5000    0.0000    0.0000 C   0  0  0  0  0  0  0  0  0  0  0  0
    0.7500    1.2990    0.0000 C   0  0  0  0  0  0  0  0  0  0  0  0
   -0.7500    1.2990    0.0000 C   0  0  0  0  0  0  0  0  0  0  0  0
   -1.5000    2.5981    0.0000 F   0  0  0  0  0  0  0  0  0  0  0  0
   -1.5000    0.0000    0.0000 C   0  0  0  0  0  0  0  0  0  0  0  0
   -0.7500   -1.2990    0.0000 C   0  0  0  0  0  0  0  0  0  0  0  0
    0.8899   -3.9684    0.0000 N   0  0  0  0  0  0  0  0  0  0  0  0
    2.0046   -4.9721    0.0000 O   0  0  0  0  0  0  0  0  0  0  0  0
    9.4121  -12.6296    0.0000 N   0  0  0  0  0  0  0  0  0  0  0  0
   10.7824  -13.2397    0.0000 O   0  0  0  0  0  0  0  0  0  0  0  0
  1  2  2  0
  2  3  1  0
  3  4  1  0
  4  5  1  0
  5  6  1  0
  6  7  1  0
  7  8  1  0
  8  9  1  0
  9 10  2  0
 10 11  1  0
 11 12  1  0
 12 13  2  0
 13 14  1  0
 14 15  2  0
 15 16  1  0
 15 17  1  0
 17 18  2  0
 11 19  2  0
 19 20  1  0
  2 21  1  0
 21 22  1  0
 20  9  1  0
 18 12  1  0
M  END
>  <molecule_chembl_id>  (171) 
CHEMBL3585962

>  <canonical_smiles>  (171) 
O=C(CCCCCCc1nc(-c2ccc(F)cc2)no1)NO

>  <pchembl_value_mean>  (171) 
5.2

>  <document_chembl_id>  (171) 
CHEMBL3585316

$$$$

     RDKit          2D

 26 29  0  0  0  0  0  0  0  0999 V2000
   -2.7729  -10.0617    0.0000 O   0  0  0  0  0  0  0  0  0  0  0  0
   -3.8876   -9.0580    0.0000 C   0  0  0  0  0  0  0  0  0  0  0  0
   -5.3142   -9.5216    0.0000 N   0  0  0  0  0  0  0  0  0  0  0  0
   -5.6260  -10.9888    0.0000 O   0  0  0  0  0  0  0  0  0  0  0  0
   -3.5757   -7.5908    0.0000 C   0  0  0  0  0  0  0  0  0  0  0  0
   -4.6904   -6.5871    0.0000 C   0  0  0  0  0  0  0  0  0  0  0  0
   -4.3786   -5.1199    0.0000 C   0  0  0  0  0  0  0  0  0  0  0  0
   -2.9520   -4.6564    0.0000 C   0  0  0  0  0  0  0  0  0  0  0  0
   -2.6401   -3.1891    0.0000 C   0  0  0  0  0  0  0  0  0  0  0  0
   -1.2135   -2.7256    0.0000 N   0  0  0  0  0  0  0  0  0  0  0  0
   -0.0000   -3.6073    0.0000 C   0  0  0  0  0  0  0  0  0  0  0  0
    1.2135   -2.7256    0.0000 C   0  0  0  0  0  0  0  0  0  0  0  0
    2.6401   -3.1891    0.0000 C   0  0  0  0  0  0  0  0  0  0  0  0
    2.9520   -4.6564    0.0000 N   0  0  0  0  0  0  0  0  0  0  0  0
    4.3223   -5.2665    0.0000 C   0  0  0  0  0  0  0  0  0  0  0  0
    4.1655   -6.7583    0.0000 C   0  0  0  0  0  0  0  0  0  0  0  0
    2.6983   -7.0701    0.0000 C   0  0  0  0  0  0  0  0  0  0  0  0
    1.9483   -5.7711    0.0000 C   0  0  0  0  0  0  0  0  0  0  0  0
    0.7500   -1.2990    0.0000 C   0  0  0  0  0  0  0  0  0  0  0  0
    1.5000    0.0000    0.0000 C   0  0  0  0  0  0  0  0  0  0  0  0
    0.7500    1.2990    0.0000 C   0  0  0  0  0  0  0  0  0  0  0  0
   -0.7500    1.2990    0.0000 C   0  0  0  0  0  0  0  0  0  0  0  0
   -1.5000    0.0000    0.0000 C   0  0  0  0  0  0  0  0  0  0  0  0
   -0.7500   -1.2990    0.0000 C   0  0  0  0  0  0  0  0  0  0  0  0
   -1.8373   -5.6601    0.0000 C   0  0  0  0  0  0  0  0  0  0  0  0
   -2.1491   -7.1273    0.0000 C   0  0  0  0  0  0  0  0  0  0  0  0
  1  2  2  0
  2  3  1  0
  3  4  1  0
  2  5  1  0
  5  6  2  0
  6  7  1  0
  7  8  2  0
  8  9  1  0
  9 10  1  0
 10 11  1  0
 11 12  2  0
 12 13  1  0
 13 14  1  0
 14 15  1  0
 15 16  1  0
 16 17  1  0
 17 18  1  0
 12 19  1  0
 19 20  2  0
 20 21  1  0
 21 22  2  0
 22 23  1  0
 23 24  2  0
  8 25  1  0
 25 26  2  0
 26  5  1  0
 24 10  1  0
 18 14  1  0
 24 19  1  0
M  END
>  <molecule_chembl_id>  (172) 
CHEMBL4578278

>  <canonical_smiles>  (172) 
O=C(NO)c1ccc(Cn2cc(CN3CCCC3)c3ccccc32)cc1

>  <pchembl_value_mean>  (172) 
5.2

>  <document_chembl_id>  (172) 
CHEMBL4385610

$$$$

     RDKit          2D

 25 27  0  0  0  0  0  0  0  0999 V2000
    1.5000   -5.1962    0.0000 C   0  0  0  0  0  0  0  0  0  0  0  0
    0.7500   -3.8971    0.0000 C   0  0  0  0  0  0  0  0  0  0  0  0
    1.5000   -2.5981    0.0000 N   0  0  0  0  0  0  0  0  0  0  0  0
    0.7500   -1.2990    0.0000 C   0  0  0  0  0  0  0  0  0  0  0  0
    1.5000    0.0000    0.0000 C   0  0  0  0  0  0  0  0  0  0  0  0
    0.7500    1.2990    0.0000 C   0  0  0  0  0  0  0  0  0  0  0  0
   -0.7500    1.2990    0.0000 C   0  0  0  0  0  0  0  0  0  0  0  0
   -1.5000    0.0000    0.0000 C   0  0  0  0  0  0  0  0  0  0  0  0
   -0.7500   -1.2990    0.0000 C   0  0  0  0  0  0  0  0  0  0  0  0
   -0.7500   -3.8971    0.0000 C   0  0  0  0  0  0  0  0  0  0  0  0
   -1.5000   -2.5981    0.0000 C   0  0  0  0  0  0  0  0  0  0  0  0
   -3.0000   -2.5981    0.0000 C   0  0  0  0  0  0  0  0  0  0  0  0
   -3.7500   -3.8971    0.0000 C   0  0  0  0  0  0  0  0  0  0  0  0
   -5.2500   -3.8971    0.0000 C   0  0  0  0  0  0  0  0  0  0  0  0
   -6.0000   -5.1962    0.0000 O   0  0  0  0  0  0  0  0  0  0  0  0
   -6.0000   -2.5981    0.0000 N   0  0  0  0  0  0  0  0  0  0  0  0
   -7.5000   -2.5981    0.0000 C   0  0  0  0  0  0  0  0  0  0  0  0
   -8.2500   -1.2990    0.0000 C   0  0  0  0  0  0  0  0  0  0  0  0
   -9.7500   -1.2990    0.0000 C   0  0  0  0  0  0  0  0  0  0  0  0
  -10.5000   -2.5981    0.0000 C   0  0  0  0  0  0  0  0  0  0  0  0
   -9.7500   -3.8971    0.0000 C   0  0  0  0  0  0  0  0  0  0  0  0
   -8.2500   -3.8971    0.0000 C   0  0  0  0  0  0  0  0  0  0  0  0
   -7.5000   -5.1962    0.0000 N   0  0  0  0  0  0  0  0  0  0  0  0
   -3.0000   -5.1962    0.0000 C   0  0  0  0  0  0  0  0  0  0  0  0
   -1.5000   -5.1962    0.0000 C   0  0  0  0  0  0  0  0  0  0  0  0
  1  2  1  0
  2  3  1  0
  3  4  1  0
  4  5  2  0
  5  6  1  0
  6  7  2  0
  7  8  1  0
  8  9  2  0
  2 10  1  0
 10 11  2  0
 11 12  1  0
 12 13  2  0
 13 14  1  0
 14 15  2  0
 14 16  1  0
 16 17  1  0
 17 18  2  0
 18 19  1  0
 19 20  2  0
 20 21  1  0
 21 22  2  0
 22 23  1  0
 13 24  1  0
 24 25  2  0
  9  4  1  0
 25 10  1  0
 22 17  1  0
M  END
>  <molecule_chembl_id>  (173) 
CHEMBL4567733

>  <canonical_smiles>  (173) 
CC(Nc1ccccc1)c1ccc(C(=O)Nc2ccccc2N)cc1

>  <pchembl_value_mean>  (173) 
5.206666

>  <document_chembl_id>  (173) 
CHEMBL4351000

$$$$

     RDKit          2D

 28 30  0  0  0  0  0  0  0  0999 V2000
    6.7500   -1.2990    0.0000 N   0  0  0  0  0  2  0  0  0  0  0  0
    5.2500   -1.2990    0.0000 N   0  0  0  0  0  4  0  0  0  0  0  0
    3.7500   -1.2990    0.0000 N   0  0  0  0  0  0  0  0  0  0  0  0
    3.0000    0.0000    0.0000 C   0  0  0  0  0  0  0  0  0  0  0  0
    1.5000    0.0000    0.0000 C   0  0  0  0  0  0  0  0  0  0  0  0
    0.7500   -1.2990    0.0000 C   0  0  0  0  0  0  0  0  0  0  0  0
   -0.7500   -1.2990    0.0000 C   0  0  0  0  0  0  0  0  0  0  0  0
   -1.5000   -2.5981    0.0000 N   0  0  0  0  0  0  0  0  0  0  0  0
   -3.0000   -2.5981    0.0000 N   0  0  0  0  0  4  0  0  0  0  0  0
   -4.5000   -2.5981    0.0000 N   0  0  0  0  0  2  0  0  0  0  0  0
   -1.5000    0.0000    0.0000 C   0  0  0  0  0  0  0  0  0  0  0  0
   -0.7500    1.2990    0.0000 C   0  0  0  0  0  0  0  0  0  0  0  0
   -1.5000    2.5981    0.0000 C   0  0  0  0  0  0  0  0  0  0  0  0
   -3.0000    2.5981    0.0000 O   0  0  0  0  0  0  0  0  0  0  0  0
   -0.7500    3.8971    0.0000 N   0  0  0  0  0  0  0  0  0  0  0  0
   -1.5000    5.1962    0.0000 C   0  0  0  0  0  0  0  0  0  0  0  0
   -0.7500    6.4952    0.0000 C   0  0  0  0  0  0  0  0  0  0  0  0
   -1.5000    7.7942    0.0000 C   0  0  0  0  0  0  0  0  0  0  0  0
   -0.7500    9.0933    0.0000 C   0  0  0  0  0  0  0  0  0  0  0  0
   -1.3601   10.4636    0.0000 C   0  0  0  0  0  0  0  0  0  0  0  0
   -0.2454   11.4673    0.0000 C   0  0  0  0  0  0  0  0  0  0  0  0
    1.0537   10.7173    0.0000 C   0  0  0  0  0  0  0  0  0  0  0  0
    0.7418    9.2501    0.0000 S   0  0  0  0  0  0  0  0  0  0  0  0
   -3.0000    7.7942    0.0000 C   0  0  0  0  0  0  0  0  0  0  0  0
   -3.7500    6.4952    0.0000 C   0  0  0  0  0  0  0  0  0  0  0  0
   -3.0000    5.1962    0.0000 C   0  0  0  0  0  0  0  0  0  0  0  0
   -3.7500    3.8971    0.0000 N   0  0  0  0  0  0  0  0  0  0  0  0
    0.7500    1.2990    0.0000 C   0  0  0  0  0  0  0  0  0  0  0  0
  1  2  2  0
  2  3  2  0
  3  4  1  0
  4  5  1  0
  5  6  2  0
  6  7  1  0
  7  8  1  0
  8  9  2  0
  9 10  2  0
  7 11  2  0
 11 12  1  0
 12 13  1  0
 13 14  2  0
 13 15  1  0
 15 16  1  0
 16 17  2  0
 17 18  1  0
 18 19  1  0
 19 20  2  0
 20 21  1  0
 21 22  2  0
 22 23  1  0
 18 24  2  0
 24 25  1  0
 25 26  2  0
 26 27  1  0
 12 28  2  0
 28  5  1  0
 26 16  1  0
 23 19  1  0
M  CHG  4   1  -1   2   1   9   1  10  -1
M  END
>  <molecule_chembl_id>  (174) 
CHEMBL2057825

>  <canonical_smiles>  (174) 
[N-]=[N+]=NCc1cc(N=[N+]=[N-])cc(C(=O)Nc2cc(-c3cccs3)ccc2N)c1

>  <pchembl_value_mean>  (174) 
5.216667

>  <document_chembl_id>  (174) 
CHEMBL2057127

$$$$

     RDKit          2D

 29 31  0  0  0  0  0  0  0  0999 V2000
   13.5204   -3.7678    0.0000 O   0  0  0  0  0  0  0  0  0  0  0  0
   13.0782   -5.2012    0.0000 C   0  0  0  0  0  0  0  0  0  0  0  0
   11.6158   -5.5350    0.0000 C   0  0  0  0  0  0  0  0  0  0  0  0
   10.5956   -4.4354    0.0000 C   0  0  0  0  0  0  0  0  0  0  0  0
    9.1332   -4.7692    0.0000 C   0  0  0  0  0  0  0  0  0  0  0  0
    8.1129   -3.6696    0.0000 C   0  0  0  0  0  0  0  0  0  0  0  0
    8.5551   -2.2362    0.0000 O   0  0  0  0  0  0  0  0  0  0  0  0
    6.6505   -4.0034    0.0000 N   0  0  0  0  0  0  0  0  0  0  0  0
    5.6303   -2.9038    0.0000 C   0  0  0  0  0  0  0  0  0  0  0  0
    4.1679   -3.2376    0.0000 C   0  0  0  0  0  0  0  0  0  0  0  0
    3.1476   -2.1380    0.0000 C   0  0  0  0  0  0  0  0  0  0  0  0
    1.6852   -2.4718    0.0000 N   0  0  0  0  0  0  0  0  0  0  0  0
    0.7500   -1.2990    0.0000 C   0  0  0  0  0  0  0  0  0  0  0  0
    1.5000    0.0000    0.0000 C   0  0  0  0  0  0  0  0  0  0  0  0
    0.7500    1.2990    0.0000 C   0  0  0  0  0  0  0  0  0  0  0  0
   -0.7500    1.2990    0.0000 C   0  0  0  0  0  0  0  0  0  0  0  0
   -1.5000    0.0000    0.0000 C   0  0  0  0  0  0  0  0  0  0  0  0
   -0.7500   -1.2990    0.0000 C   0  0  0  0  0  0  0  0  0  0  0  0
   -1.6852   -2.4718    0.0000 C   0  0  0  0  0  0  0  0  0  0  0  0
   -1.3515   -3.9342    0.0000 C   0  0  0  0  0  0  0  0  0  0  0  0
   -0.0000   -4.5850    0.0000 C   0  0  0  0  0  0  0  0  0  0  0  0
   -0.1121   -6.0808    0.0000 C   0  0  0  0  0  0  0  0  0  0  0  0
    1.1273   -6.9258    0.0000 C   0  0  0  0  0  0  0  0  0  0  0  0
    2.4787   -6.2750    0.0000 C   0  0  0  0  0  0  0  0  0  0  0  0
    3.7181   -7.1199    0.0000 Cl  0  0  0  0  0  0  0  0  0  0  0  0
    2.5908   -4.7792    0.0000 C   0  0  0  0  0  0  0  0  0  0  0  0
    1.3515   -3.9342    0.0000 C   0  0  0  0  0  0  0  0  0  0  0  0
   14.0985   -6.3008    0.0000 N   0  0  0  0  0  0  0  0  0  0  0  0
   15.5609   -5.9670    0.0000 O   0  0  0  0  0  0  0  0  0  0  0  0
  1  2  2  0
  2  3  1  0
  3  4  1  0
  4  5  1  0
  5  6  1  0
  6  7  2  0
  6  8  1  0
  8  9  1  0
  9 10  1  0
 10 11  1  0
 11 12  1  0
 12 13  1  0
 13 14  2  0
 14 15  1  0
 15 16  2  0
 16 17  1  0
 17 18  2  0
 18 19  1  0
 19 20  1  0
 20 21  1  0
 21 22  2  0
 22 23  1  0
 23 24  2  0
 24 25  1  0
 24 26  1  0
 26 27  2  0
  2 28  1  0
 28 29  1  0
 27 12  1  0
 18 13  1  0
 27 21  1  0
M  END
>  <molecule_chembl_id>  (175) 
CHEMBL4634931

>  <canonical_smiles>  (175) 
O=C(CCCC(=O)NCCCN1c2ccccc2CCc2ccc(Cl)cc21)NO

>  <pchembl_value_mean>  (175) 
5.22

>  <document_chembl_id>  (175) 
CHEMBL4602647

$$$$

     RDKit          2D

 34 36  0  0  0  0  0  0  0  0999 V2000
    3.0000    0.0000    0.0000 N   0  0  0  0  0  0  0  0  0  0  0  0
    1.5000    0.0000    0.0000 C   0  0  0  0  0  0  0  0  0  0  0  0
    0.7500   -1.2990    0.0000 C   0  0  0  0  0  0  0  0  0  0  0  0
   -0.7500   -1.2990    0.0000 C   0  0  0  0  0  0  0  0  0  0  0  0
   -1.5000    0.0000    0.0000 C   0  0  0  0  0  0  0  0  0  0  0  0
   -0.7500    1.2990    0.0000 C   0  0  0  0  0  0  0  0  0  0  0  0
    0.7500    1.2990    0.0000 C   0  0  0  0  0  0  0  0  0  0  0  0
    1.5000    2.5981    0.0000 N   0  0  0  0  0  0  0  0  0  0  0  0
    0.7500    3.8971    0.0000 C   0  0  0  0  0  0  0  0  0  0  0  0
   -0.7500    3.8971    0.0000 O   0  0  0  0  0  0  0  0  0  0  0  0
    1.5000    5.1962    0.0000 C   0  0  0  0  0  0  0  0  0  0  0  0
    0.7500    6.4952    0.0000 C   0  0  0  0  0  0  0  0  0  0  0  0
    1.5000    7.7942    0.0000 C   0  0  0  0  0  0  0  0  0  0  0  0
    0.7500    9.0933    0.0000 C   0  0  0  0  0  0  0  0  0  0  0  0
    1.5000   10.3923    0.0000 C   0  0  0  0  0  0  0  0  0  0  0  0
    0.7500   11.6913    0.0000 N   0  0  0  0  0  0  0  0  0  0  0  0
    1.5000   12.9904    0.0000 C   0  0  0  0  0  0  0  0  0  0  0  0
    0.7500   14.2894    0.0000 C   0  0  0  0  0  0  0  0  0  0  0  0
   -0.7500   14.2894    0.0000 O   0  0  0  0  0  0  0  0  0  0  0  0
    1.5000   15.5885    0.0000 N   0  0  0  0  0  0  0  0  0  0  0  0
    0.7500   16.8875    0.0000 C   0  0  0  0  0  0  0  0  0  0  0  0
    1.5000   18.1865    0.0000 C   0  0  0  0  0  0  0  0  0  0  0  0
    0.7500   19.4856    0.0000 C   0  0  0  0  0  0  0  0  0  0  0  0
   -0.7500   19.4856    0.0000 C   0  0  0  0  0  0  0  0  0  0  0  0
   -1.5000   18.1865    0.0000 C   0  0  0  0  0  0  0  0  0  0  0  0
   -0.7500   16.8875    0.0000 C   0  0  0  0  0  0  0  0  0  0  0  0
   -0.7500   11.6913    0.0000 C   0  0  0  0  0  0  0  0  0  0  0  0
   -1.5000   12.9904    0.0000 O   0  0  0  0  0  0  0  0  0  0  0  0
   -1.5000   10.3923    0.0000 C   0  0  0  0  0  0  0  0  0  0  0  0
   -0.7500    9.0933    0.0000 C   0  0  0  0  0  0  0  0  0  0  0  0
   -1.5000    7.7942    0.0000 C   0  0  0  0  0  0  0  0  0  0  0  0
   -3.0000    7.7942    0.0000 C   0  0  0  0  0  0  0  0  0  0  0  0
   -3.7500    9.0933    0.0000 C   0  0  0  0  0  0  0  0  0  0  0  0
   -3.0000   10.3923    0.0000 C   0  0  0  0  0  0  0  0  0  0  0  0
  1  2  1  0
  2  3  2  0
  3  4  1  0
  4  5  2  0
  5  6  1  0
  6  7  2  0
  7  8  1  0
  8  9  1  0
  9 10  2  0
  9 11  1  0
 11 12  1  0
 12 13  1  0
 13 14  1  0
 14 15  1  0
 15 16  1  0
 16 17  1  0
 17 18  1  0
 18 19  2  0
 18 20  1  0
 20 21  1  0
 21 22  1  0
 22 23  1  0
 23 24  1  0
 24 25  1  0
 25 26  1  0
 16 27  1  0
 27 28  2  0
 27 29  1  0
 29 30  2  0
 30 31  1  0
 31 32  2  0
 32 33  1  0
 33 34  2  0
  7  2  1  0
 26 21  1  0
 34 29  1  0
M  END
>  <molecule_chembl_id>  (176) 
CHEMBL4462904

>  <canonical_smiles>  (176) 
Nc1ccccc1NC(=O)CCCCCN(CC(=O)NC1CCCCC1)C(=O)c1ccccc1

>  <pchembl_value_mean>  (176) 
5.22

>  <document_chembl_id>  (176) 
CHEMBL4334526

$$$$

     RDKit          2D

 24 26  0  0  0  0  0  0  0  0999 V2000
    3.0000    0.0000    0.0000 O   0  0  0  0  0  0  0  0  0  0  0  0
    1.5000    0.0000    0.0000 C   0  0  0  0  0  0  0  0  0  0  0  0
    0.7500   -1.2990    0.0000 C   0  0  0  0  0  0  0  0  0  0  0  0
   -0.7500   -1.2990    0.0000 C   0  0  0  0  0  0  0  0  0  0  0  0
   -1.5000    0.0000    0.0000 C   0  0  0  0  0  0  0  0  0  0  0  0
   -0.7500    1.2990    0.0000 N   0  0  0  0  0  0  0  0  0  0  0  0
   -1.5000    2.5981    0.0000 C   0  0  0  0  0  0  0  0  0  0  0  0
   -3.0000    2.5981    0.0000 C   0  0  0  0  0  0  0  0  0  0  0  0
   -3.7500    3.8971    0.0000 C   0  0  0  0  0  0  0  0  0  0  0  0
   -5.2500    3.8971    0.0000 C   0  0  0  0  0  0  0  0  0  0  0  0
   -6.0000    5.1962    0.0000 C   0  0  0  0  0  0  0  0  0  0  0  0
   -7.5000    5.1962    0.0000 N   0  0  0  0  0  0  0  0  0  0  0  0
   -8.3817    3.9826    0.0000 C   0  0  0  0  0  0  0  0  0  0  0  0
   -9.8083    4.4462    0.0000 C   0  0  0  0  0  0  0  0  0  0  0  0
  -11.0218    3.5645    0.0000 C   0  0  0  0  0  0  0  0  0  0  0  0
  -12.3921    4.1746    0.0000 C   0  0  0  0  0  0  0  0  0  0  0  0
  -13.6056    3.2929    0.0000 C   0  0  0  0  0  0  0  0  0  0  0  0
  -13.4488    1.8011    0.0000 C   0  0  0  0  0  0  0  0  0  0  0  0
  -12.0785    1.1910    0.0000 C   0  0  0  0  0  0  0  0  0  0  0  0
  -10.8650    2.0727    0.0000 C   0  0  0  0  0  0  0  0  0  0  0  0
   -9.8083    5.9462    0.0000 N   0  0  0  0  0  0  0  0  0  0  0  0
   -8.3817    6.4097    0.0000 N   0  0  0  0  0  0  0  0  0  0  0  0
    0.7500    1.2990    0.0000 C   0  0  0  0  0  0  0  0  0  0  0  0
    1.5000    2.5981    0.0000 S   0  0  0  0  0  0  0  0  0  0  0  0
  1  2  1  0
  2  3  2  0
  3  4  1  0
  4  5  2  0
  5  6  1  0
  6  7  1  0
  7  8  1  0
  8  9  1  0
  9 10  1  0
 10 11  1  0
 11 12  1  0
 12 13  1  0
 13 14  2  0
 14 15  1  0
 15 16  2  0
 16 17  1  0
 17 18  2  0
 18 19  1  0
 19 20  2  0
 14 21  1  0
 21 22  2  0
  6 23  1  0
 23 24  2  0
 23  2  1  0
 22 12  1  0
 20 15  1  0
M  END
>  <molecule_chembl_id>  (177) 
CHEMBL3110287

>  <canonical_smiles>  (177) 
Oc1cccn(CCCCCn2cc(-c3ccccc3)nn2)c1=S

>  <pchembl_value_mean>  (177) 
5.23

>  <document_chembl_id>  (177) 
CHEMBL3108745

$$$$

     RDKit          2D

 34 37  0  0  0  0  0  0  0  0999 V2000
    3.0000    0.0000    0.0000 N   0  0  0  0  0  0  0  0  0  0  0  0
    1.5000    0.0000    0.0000 C   0  0  0  0  0  0  0  0  0  0  0  0
    0.7500   -1.2990    0.0000 C   0  0  0  0  0  0  0  0  0  0  0  0
   -0.7500   -1.2990    0.0000 C   0  0  0  0  0  0  0  0  0  0  0  0
   -1.5000    0.0000    0.0000 C   0  0  0  0  0  0  0  0  0  0  0  0
   -0.7500    1.2990    0.0000 C   0  0  0  0  0  0  0  0  0  0  0  0
    0.7500    1.2990    0.0000 C   0  0  0  0  0  0  0  0  0  0  0  0
    1.5000    2.5981    0.0000 N   0  0  0  0  0  0  0  0  0  0  0  0
    0.7500    3.8971    0.0000 C   0  0  0  0  0  0  0  0  0  0  0  0
   -0.7500    3.8971    0.0000 O   0  0  0  0  0  0  0  0  0  0  0  0
    1.5000    5.1962    0.0000 C   0  0  0  0  0  0  0  0  0  0  0  0
    3.0000    5.1962    0.0000 C   0  0  0  0  0  0  0  0  0  0  0  0
    3.7500    6.4952    0.0000 C   0  0  0  0  0  0  0  0  0  0  0  0
    3.0000    7.7942    0.0000 C   0  0  0  0  0  0  0  0  0  0  0  0
    3.7500    9.0933    0.0000 C   0  0  0  0  0  0  0  0  0  0  0  0
    5.2500    9.0933    0.0000 N   0  0  0  0  0  0  0  0  0  0  0  0
    6.0000   10.3923    0.0000 C   0  0  0  0  0  0  0  0  0  0  0  0
    7.5000   10.3923    0.0000 C   0  0  0  0  0  0  0  0  0  0  0  0
    8.3817   11.6058    0.0000 N   0  0  0  0  0  0  0  0  0  0  0  0
    9.8083   11.1423    0.0000 C   0  0  0  0  0  0  0  0  0  0  0  0
   11.0218   12.0240    0.0000 C   0  0  0  0  0  0  0  0  0  0  0  0
   12.3921   11.4139    0.0000 C   0  0  0  0  0  0  0  0  0  0  0  0
   13.6056   12.2956    0.0000 C   0  0  0  0  0  0  0  0  0  0  0  0
   13.4488   13.7873    0.0000 C   0  0  0  0  0  0  0  0  0  0  0  0
   14.6624   14.6690    0.0000 C   0  0  0  0  0  0  0  0  0  0  0  0
   15.8759   15.5507    0.0000 F   0  0  0  0  0  0  0  0  0  0  0  0
   15.5440   13.4555    0.0000 F   0  0  0  0  0  0  0  0  0  0  0  0
   13.7807   15.8825    0.0000 F   0  0  0  0  0  0  0  0  0  0  0  0
   12.0785   14.3974    0.0000 C   0  0  0  0  0  0  0  0  0  0  0  0
   10.8650   13.5158    0.0000 C   0  0  0  0  0  0  0  0  0  0  0  0
    9.8083    9.6423    0.0000 N   0  0  0  0  0  0  0  0  0  0  0  0
    8.3817    9.1788    0.0000 O   0  0  0  0  0  0  0  0  0  0  0  0
    1.5000    7.7942    0.0000 C   0  0  0  0  0  0  0  0  0  0  0  0
    0.7500    6.4952    0.0000 C   0  0  0  0  0  0  0  0  0  0  0  0
  1  2  1  0
  2  3  2  0
  3  4  1  0
  4  5  2  0
  5  6  1  0
  6  7  2  0
  7  8  1  0
  8  9  1  0
  9 10  2  0
  9 11  1  0
 11 12  2  0
 12 13  1  0
 13 14  2  0
 14 15  1  0
 15 16  1  0
 16 17  1  0
 17 18  1  0
 18 19  2  0
 19 20  1  0
 20 21  1  0
 21 22  2  0
 22 23  1  0
 23 24  2  0
 24 25  1  0
 25 26  1  0
 25 27  1  0
 25 28  1  0
 24 29  1  0
 29 30  2  0
 20 31  2  0
 31 32  1  0
 14 33  1  0
 33 34  2  0
  7  2  1  0
 34 11  1  0
 32 18  1  0
 30 21  1  0
M  END
>  <molecule_chembl_id>  (178) 
CHEMBL3421740

>  <canonical_smiles>  (178) 
Nc1ccccc1NC(=O)c1ccc(CNCc2nc(-c3ccc(C(F)(F)F)cc3)no2)cc1

>  <pchembl_value_mean>  (178) 
5.23

>  <document_chembl_id>  (178) 
CHEMBL3421568

$$$$

     RDKit          2D

 30 33  0  0  0  0  0  0  0  0999 V2000
    3.0000    0.0000    0.0000 C   0  0  0  0  0  0  0  0  0  0  0  0
    1.5000    0.0000    0.0000 C   0  0  0  0  0  0  0  0  0  0  0  0
    0.7500   -1.2990    0.0000 C   0  0  0  0  0  0  0  0  0  0  0  0
   -0.7500   -1.2990    0.0000 C   0  0  0  0  0  0  0  0  0  0  0  0
   -1.5000    0.0000    0.0000 C   0  0  0  0  0  0  0  0  0  0  0  0
   -3.0000    0.0000    0.0000 C   0  0  0  0  0  0  0  0  0  0  0  0
   -3.8817   -1.2135    0.0000 N   0  0  0  0  0  0  0  0  0  0  0  0
   -5.3083   -0.7500    0.0000 N   0  0  0  0  0  0  0  0  0  0  0  0
   -6.5218   -1.6317    0.0000 C   0  0  0  0  0  0  0  0  0  0  0  0
   -7.8921   -1.0216    0.0000 C   0  0  0  0  0  0  0  0  0  0  0  0
   -9.1056   -1.9033    0.0000 C   0  0  0  0  0  0  0  0  0  0  0  0
   -8.9488   -3.3950    0.0000 C   0  0  0  0  0  0  0  0  0  0  0  0
   -7.5785   -4.0051    0.0000 C   0  0  0  0  0  0  0  0  0  0  0  0
   -6.3650   -3.1235    0.0000 C   0  0  0  0  0  0  0  0  0  0  0  0
   -5.3083    0.7500    0.0000 C   0  0  0  0  0  0  0  0  0  0  0  0
   -3.8817    1.2135    0.0000 C   0  0  0  0  0  0  0  0  0  0  0  0
   -3.4182    2.6401    0.0000 C   0  0  0  0  0  0  0  0  0  0  0  0
   -4.4218    3.7548    0.0000 C   0  0  0  0  0  0  0  0  0  0  0  0
   -3.9583    5.1814    0.0000 C   0  0  0  0  0  0  0  0  0  0  0  0
   -2.4911    5.4933    0.0000 O   0  0  0  0  0  0  0  0  0  0  0  0
   -4.9620    6.2961    0.0000 N   0  0  0  0  0  0  0  0  0  0  0  0
   -4.4985    7.7227    0.0000 C   0  0  0  0  0  0  0  0  0  0  0  0
   -3.0313    8.0346    0.0000 C   0  0  0  0  0  0  0  0  0  0  0  0
   -2.5677    9.4612    0.0000 C   0  0  0  0  0  0  0  0  0  0  0  0
   -3.5714   10.5759    0.0000 C   0  0  0  0  0  0  0  0  0  0  0  0
   -3.1079   12.0025    0.0000 Cl  0  0  0  0  0  0  0  0  0  0  0  0
   -5.0387   10.2640    0.0000 C   0  0  0  0  0  0  0  0  0  0  0  0
   -5.5022    8.8374    0.0000 C   0  0  0  0  0  0  0  0  0  0  0  0
   -0.7500    1.2990    0.0000 C   0  0  0  0  0  0  0  0  0  0  0  0
    0.7500    1.2990    0.0000 C   0  0  0  0  0  0  0  0  0  0  0  0
  1  2  1  0
  2  3  2  0
  3  4  1  0
  4  5  2  0
  5  6  1  0
  6  7  2  0
  7  8  1  0
  8  9  1  0
  9 10  2  0
 10 11  1  0
 11 12  2  0
 12 13  1  0
 13 14  2  0
  8 15  1  0
 15 16  2  0
 16 17  1  0
 17 18  2  3
 18 19  1  0
 19 20  2  0
 19 21  1  0
 21 22  1  0
 22 23  2  0
 23 24  1  0
 24 25  2  0
 25 26  1  0
 25 27  1  0
 27 28  2  0
  5 29  1  0
 29 30  2  0
 30  2  1  0
 16  6  1  0
 28 22  1  0
 14  9  1  0
M  END
>  <molecule_chembl_id>  (179) 
CHEMBL2047606

>  <canonical_smiles>  (179) 
Cc1ccc(-c2nn(-c3ccccc3)cc2C=CC(=O)Nc2ccc(Cl)cc2)cc1

>  <pchembl_value_mean>  (179) 
5.23

>  <document_chembl_id>  (179) 
CHEMBL2046430

$$$$

     RDKit          2D

 24 25  0  0  0  0  0  0  0  0999 V2000
  -15.0000  -10.3923    0.0000 O   0  0  0  0  0  0  0  0  0  0  0  0
  -14.2500   -9.0933    0.0000 C   0  0  0  0  0  0  0  0  0  0  0  0
  -12.7500   -9.0933    0.0000 N   0  0  0  0  0  0  0  0  0  0  0  0
  -12.0000  -10.3923    0.0000 O   0  0  0  0  0  0  0  0  0  0  0  0
  -12.0000   -7.7942    0.0000 C   0  0  0  0  0  0  0  0  0  0  0  0
  -10.5000   -7.7942    0.0000 C   0  0  0  0  0  0  0  0  0  0  0  0
   -9.7500   -6.4952    0.0000 C   0  0  0  0  0  0  0  0  0  0  0  0
   -8.2500   -6.4952    0.0000 C   0  0  0  0  0  0  0  0  0  0  0  0
   -7.5000   -5.1962    0.0000 C   0  0  0  0  0  0  0  0  0  0  0  0
   -6.0000   -5.1962    0.0000 C   0  0  0  0  0  0  0  0  0  0  0  0
   -5.2500   -3.8971    0.0000 C   0  0  0  0  0  0  0  0  0  0  0  0
   -3.7500   -3.8971    0.0000 C   0  0  0  0  0  0  0  0  0  0  0  0
   -3.0000   -5.1962    0.0000 O   0  0  0  0  0  0  0  0  0  0  0  0
   -3.0000   -2.5981    0.0000 N   0  0  0  0  0  0  0  0  0  0  0  0
   -1.5000   -2.5981    0.0000 C   0  0  0  0  0  0  0  0  0  0  0  0
   -0.7500   -3.8971    0.0000 C   0  0  0  0  0  0  0  0  0  0  0  0
    0.7500   -3.8971    0.0000 C   0  0  0  0  0  0  0  0  0  0  0  0
    1.5000   -2.5981    0.0000 C   0  0  0  0  0  0  0  0  0  0  0  0
    0.7500   -1.2990    0.0000 C   0  0  0  0  0  0  0  0  0  0  0  0
    1.5000    0.0000    0.0000 C   0  0  0  0  0  0  0  0  0  0  0  0
    0.7500    1.2990    0.0000 C   0  0  0  0  0  0  0  0  0  0  0  0
   -0.7500    1.2990    0.0000 C   0  0  0  0  0  0  0  0  0  0  0  0
   -1.5000    0.0000    0.0000 C   0  0  0  0  0  0  0  0  0  0  0  0
   -0.7500   -1.2990    0.0000 C   0  0  0  0  0  0  0  0  0  0  0  0
  1  2  2  0
  2  3  1  0
  3  4  1  0
  3  5  1  0
  5  6  1  0
  6  7  1  0
  7  8  1  0
  8  9  1  0
  9 10  1  0
 10 11  1  0
 11 12  1  0
 12 13  2  0
 12 14  1  0
 14 15  1  0
 15 16  2  0
 16 17  1  0
 17 18  2  0
 18 19  1  0
 19 20  2  0
 20 21  1  0
 21 22  2  0
 22 23  1  0
 23 24  2  0
 24 15  1  0
 24 19  1  0
M  END
>  <molecule_chembl_id>  (180) 
CHEMBL137875

>  <canonical_smiles>  (180) 
O=CN(O)CCCCCCCC(=O)Nc1cccc2ccccc12

>  <pchembl_value_mean>  (180) 
5.23

>  <document_chembl_id>  (180) 
CHEMBL1137945

$$$$

     RDKit          2D

 42 45  0  0  0  0  0  0  0  0999 V2000
   -3.0000    2.5981    0.0000 C   0  0  0  0  0  0  0  0  0  0  0  0
   -1.5000    2.5981    0.0000 C   0  0  0  0  0  0  0  0  0  0  0  0
   -0.7500    3.8971    0.0000 C   0  0  0  0  0  0  0  0  0  0  0  0
   -0.7500    1.2990    0.0000 C   0  0  0  0  0  0  0  0  0  0  0  0
   -1.5000    0.0000    0.0000 C   0  0  0  0  0  0  0  0  0  0  0  0
   -0.7500   -1.2990    0.0000 C   0  0  0  0  0  0  0  0  0  0  0  0
   -1.5000   -2.5981    0.0000 N   0  0  0  0  0  0  0  0  0  0  0  0
   -0.8899   -3.9684    0.0000 N   0  0  0  0  0  0  0  0  0  0  0  0
   -2.0046   -4.9721    0.0000 N   0  0  0  0  0  0  0  0  0  0  0  0
   -3.3037   -4.2221    0.0000 C   0  0  0  0  0  0  0  0  0  0  0  0
   -4.6740   -4.8322    0.0000 C   0  0  0  0  0  0  0  0  0  0  0  0
   -4.8308   -6.3240    0.0000 O   0  0  0  0  0  0  0  0  0  0  0  0
   -5.8875   -3.9505    0.0000 N   0  0  0  0  0  0  0  0  0  0  0  0
   -7.2578   -4.5606    0.0000 C   0  0  0  0  0  0  0  0  0  0  0  0
   -8.4713   -3.6789    0.0000 C   0  0  0  0  0  0  0  0  0  0  0  0
   -9.8417   -4.2890    0.0000 C   0  0  0  0  0  0  0  0  0  0  0  0
  -11.0552   -3.4074    0.0000 C   0  0  0  0  0  0  0  0  0  0  0  0
  -12.4255   -4.0175    0.0000 C   0  0  0  0  0  0  0  0  0  0  0  0
  -13.6390   -3.1358    0.0000 C   0  0  0  0  0  0  0  0  0  0  0  0
  -15.0093   -3.7459    0.0000 C   0  0  0  0  0  0  0  0  0  0  0  0
  -15.1661   -5.2377    0.0000 O   0  0  0  0  0  0  0  0  0  0  0  0
  -16.2229   -2.8642    0.0000 N   0  0  0  0  0  0  0  0  0  0  0  0
  -17.5932   -3.4743    0.0000 O   0  0  0  0  0  0  0  0  0  0  0  0
   -2.9918   -2.7549    0.0000 C   0  0  0  0  0  0  0  0  0  0  0  0
   -3.9955   -1.6402    0.0000 C   0  0  0  0  0  0  0  0  0  0  0  0
   -3.5320   -0.2136    0.0000 C   0  0  0  0  0  0  0  0  0  0  0  0
   -4.5356    0.9012    0.0000 C   0  0  0  0  0  0  0  0  0  0  0  0
   -6.0029    0.5893    0.0000 C   0  0  0  0  0  0  0  0  0  0  0  0
   -7.0066    1.7040    0.0000 C   0  0  0  0  0  0  0  0  0  0  0  0
   -6.5430    3.1306    0.0000 N   0  0  0  0  0  0  0  0  0  0  0  0
   -5.0758    3.4425    0.0000 C   0  0  0  0  0  0  0  0  0  0  0  0
   -4.6123    4.8690    0.0000 C   0  0  0  0  0  0  0  0  0  0  0  0
   -5.6160    5.9838    0.0000 O   0  0  0  0  0  0  0  0  0  0  0  0
   -7.0832    5.6719    0.0000 C   0  0  0  0  0  0  0  0  0  0  0  0
   -7.5467    4.2453    0.0000 C   0  0  0  0  0  0  0  0  0  0  0  0
   -6.4664   -0.8373    0.0000 C   0  0  0  0  0  0  0  0  0  0  0  0
   -5.4627   -1.9520    0.0000 C   0  0  0  0  0  0  0  0  0  0  0  0
    0.7500   -1.2990    0.0000 C   0  0  0  0  0  0  0  0  0  0  0  0
    1.5000   -2.5981    0.0000 O   0  0  0  0  0  0  0  0  0  0  0  0
    1.5000   -0.0000    0.0000 C   0  0  0  0  0  0  0  0  0  0  0  0
    0.7500    1.2990    0.0000 C   0  0  0  0  0  0  0  0  0  0  0  0
    1.5000    2.5981    0.0000 O   0  0  0  0  0  0  0  0  0  0  0  0
  1  2  1  0
  2  3  1  0
  2  4  1  0
  4  5  2  0
  5  6  1  0
  6  7  1  0
  7  8  1  0
  8  9  2  0
  9 10  1  0
 10 11  1  0
 11 12  2  0
 11 13  1  0
 13 14  1  0
 14 15  1  0
 15 16  1  0
 16 17  1  0
 17 18  1  0
 18 19  1  0
 19 20  1  0
 20 21  2  0
 20 22  1  0
 22 23  1  0
 10 24  2  0
 24 25  1  0
 25 26  2  0
 26 27  1  0
 27 28  2  0
 28 29  1  0
 29 30  1  0
 30 31  1  0
 31 32  1  0
 32 33  1  0
 33 34  1  0
 34 35  1  0
 28 36  1  0
 36 37  2  0
  6 38  2  0
 38 39  1  0
 38 40  1  0
 40 41  2  0
 41 42  1  0
 41  4  1  0
 24  7  1  0
 37 25  1  0
 35 30  1  0
M  END
>  <molecule_chembl_id>  (181) 
CHEMBL3235118

>  <canonical_smiles>  (181) 
CC(C)c1cc(-n2nnc(C(=O)NCCCCCCC(=O)NO)c2-c2ccc(CN3CCOCC3)cc2)c(O)cc1O

>  <pchembl_value_mean>  (181) 
5.25

>  <document_chembl_id>  (181) 
CHEMBL3232837

$$$$

     RDKit          2D

 28 30  0  0  0  0  0  0  0  0999 V2000
    0.7500   -6.4952    0.0000 C   0  0  0  0  0  0  0  0  0  0  0  0
    1.5000   -5.1962    0.0000 C   0  0  0  0  0  0  0  0  0  0  0  0
    0.7500   -3.8971    0.0000 C   0  0  0  0  0  0  0  0  0  0  0  0
    1.5000   -2.5981    0.0000 N   0  0  0  0  0  0  0  0  0  0  0  0
    0.7500   -1.2990    0.0000 C   0  0  0  0  0  0  0  0  0  0  0  0
    1.5000    0.0000    0.0000 C   0  0  0  0  0  0  0  0  0  0  0  0
    0.7500    1.2990    0.0000 C   0  0  0  0  0  0  0  0  0  0  0  0
    1.5000    2.5981    0.0000 F   0  0  0  0  0  0  0  0  0  0  0  0
   -0.7500    1.2990    0.0000 C   0  0  0  0  0  0  0  0  0  0  0  0
   -1.5000    2.5981    0.0000 C   0  0  0  0  0  0  0  0  0  0  0  0
   -0.7500    3.8971    0.0000 C   0  0  0  0  0  0  0  0  0  0  0  0
   -1.5000    5.1962    0.0000 C   0  0  0  0  0  0  0  0  0  0  0  0
   -3.0000    5.1962    0.0000 O   0  0  0  0  0  0  0  0  0  0  0  0
   -0.7500    6.4952    0.0000 N   0  0  0  0  0  0  0  0  0  0  0  0
   -1.5000    7.7942    0.0000 O   0  0  0  0  0  0  0  0  0  0  0  0
   -1.5000    0.0000    0.0000 C   0  0  0  0  0  0  0  0  0  0  0  0
   -0.7500   -1.2990    0.0000 C   0  0  0  0  0  0  0  0  0  0  0  0
   -1.5000   -2.5981    0.0000 C   0  0  0  0  0  0  0  0  0  0  0  0
   -3.0000   -2.5981    0.0000 O   0  0  0  0  0  0  0  0  0  0  0  0
   -0.7500   -3.8971    0.0000 N   0  0  0  0  0  0  0  0  0  0  0  0
   -1.5000   -5.1962    0.0000 C   0  0  0  0  0  0  0  0  0  0  0  0
   -3.0000   -5.1962    0.0000 C   0  0  0  0  0  0  0  0  0  0  0  0
   -3.7500   -6.4952    0.0000 C   0  0  0  0  0  0  0  0  0  0  0  0
   -5.2500   -6.4952    0.0000 C   0  0  0  0  0  0  0  0  0  0  0  0
   -6.0000   -7.7942    0.0000 C   0  0  0  0  0  0  0  0  0  0  0  0
   -5.2500   -9.0933    0.0000 C   0  0  0  0  0  0  0  0  0  0  0  0
   -3.7500   -9.0933    0.0000 C   0  0  0  0  0  0  0  0  0  0  0  0
   -3.0000   -7.7942    0.0000 C   0  0  0  0  0  0  0  0  0  0  0  0
  1  2  1  0
  2  3  1  0
  3  4  2  0
  4  5  1  0
  5  6  2  0
  6  7  1  0
  7  8  1  0
  7  9  2  0
  9 10  1  0
 10 11  2  3
 11 12  1  0
 12 13  2  0
 12 14  1  0
 14 15  1  0
  9 16  1  0
 16 17  2  0
 17 18  1  0
 18 19  2  0
 18 20  1  0
 20 21  1  0
 21 22  1  0
 22 23  1  0
 23 24  2  0
 24 25  1  0
 25 26  2  0
 26 27  1  0
 27 28  2  0
 20  3  1  0
 28 23  1  0
 17  5  1  0
M  END
>  <molecule_chembl_id>  (182) 
CHEMBL2425968

>  <canonical_smiles>  (182) 
CCc1nc2cc(F)c(C=CC(=O)NO)cc2c(=O)n1CCc1ccccc1

>  <pchembl_value_mean>  (182) 
5.25

>  <document_chembl_id>  (182) 
CHEMBL2424579

$$$$

     RDKit          2D

 26 28  0  0  0  0  0  0  0  0999 V2000
    3.7500    1.2990    0.0000 O   0  0  0  0  0  0  0  0  0  0  0  0
    3.0000    0.0000    0.0000 C   0  0  0  0  0  0  0  0  0  0  0  0
    3.7500   -1.2990    0.0000 N   0  0  0  0  0  0  0  0  0  0  0  0
    5.2500   -1.2990    0.0000 O   0  0  0  0  0  0  0  0  0  0  0  0
    1.5000    0.0000    0.0000 C   0  0  0  0  0  0  0  0  0  0  0  0
    0.7500   -1.2990    0.0000 C   0  0  0  0  0  0  0  0  0  0  0  0
   -0.7500   -1.2990    0.0000 C   0  0  0  0  0  0  0  0  0  0  0  0
   -1.5000    0.0000    0.0000 C   0  0  0  0  0  0  0  0  0  0  0  0
   -3.0000    0.0000    0.0000 C   0  0  0  0  0  0  0  0  0  0  0  0
   -3.7500    1.2990    0.0000 N   0  0  0  0  0  0  0  0  0  0  0  0
   -3.0000    2.5981    0.0000 C   0  0  0  0  0  0  0  0  0  0  0  0
   -1.5000    2.5981    0.0000 O   0  0  0  0  0  0  0  0  0  0  0  0
   -3.7500    3.8971    0.0000 C   0  0  0  0  0  0  0  0  0  0  0  0
   -5.2500    3.8971    0.0000 N   0  0  0  0  0  0  0  0  0  0  0  0
   -6.0000    2.5981    0.0000 C   0  0  0  0  0  0  0  0  0  0  0  0
   -7.5000    2.5981    0.0000 O   0  0  0  0  0  0  0  0  0  0  0  0
   -5.2500    1.2990    0.0000 C   0  0  0  0  0  0  0  0  0  0  0  0
   -6.0000    0.0000    0.0000 C   0  0  0  0  0  0  0  0  0  0  0  0
   -7.5000    0.0000    0.0000 C   0  0  0  0  0  0  0  0  0  0  0  0
   -8.2500    1.2990    0.0000 C   0  0  0  0  0  0  0  0  0  0  0  0
   -9.7500    1.2990    0.0000 C   0  0  0  0  0  0  0  0  0  0  0  0
  -10.5000    0.0000    0.0000 C   0  0  0  0  0  0  0  0  0  0  0  0
   -9.7500   -1.2990    0.0000 C   0  0  0  0  0  0  0  0  0  0  0  0
   -8.2500   -1.2990    0.0000 C   0  0  0  0  0  0  0  0  0  0  0  0
   -0.7500    1.2990    0.0000 C   0  0  0  0  0  0  0  0  0  0  0  0
    0.7500    1.2990    0.0000 C   0  0  0  0  0  0  0  0  0  0  0  0
  1  2  2  0
  2  3  1  0
  3  4  1  0
  2  5  1  0
  5  6  2  0
  6  7  1  0
  7  8  2  0
  8  9  1  0
  9 10  1  0
 10 11  1  0
 11 12  2  0
 11 13  1  0
 13 14  1  0
 14 15  1  0
 15 16  2  0
 15 17  1  0
 17 18  1  0
 18 19  1  0
 19 20  2  0
 20 21  1  0
 21 22  2  0
 22 23  1  0
 23 24  2  0
  8 25  1  0
 25 26  2  0
 26  5  1  0
 17 10  1  0
 24 19  1  0
M  END
>  <molecule_chembl_id>  (183) 
CHEMBL481718

>  <canonical_smiles>  (183) 
O=C(NO)c1ccc(CN2C(=O)CNC(=O)C2Cc2ccccc2)cc1

>  <pchembl_value_mean>  (183) 
5.26

>  <document_chembl_id>  (183) 
CHEMBL1143301

$$$$

     RDKit          2D

 25 27  0  0  0  0  0  0  0  0999 V2000
    3.7500    1.2990    0.0000 O   0  0  0  0  0  0  0  0  0  0  0  0
    3.0000    0.0000    0.0000 C   0  0  0  0  0  0  0  0  0  0  0  0
    3.7500   -1.2990    0.0000 N   0  0  0  0  0  0  0  0  0  0  0  0
    5.2500   -1.2990    0.0000 O   0  0  0  0  0  0  0  0  0  0  0  0
    1.5000    0.0000    0.0000 C   0  0  0  0  0  0  0  0  0  0  0  0
    0.7500   -1.2990    0.0000 C   0  0  0  0  0  0  0  0  0  0  0  0
   -0.7500   -1.2990    0.0000 C   0  0  0  0  0  0  0  0  0  0  0  0
   -1.5000    0.0000    0.0000 C   0  0  0  0  0  0  0  0  0  0  0  0
   -3.0000    0.0000    0.0000 C   0  0  0  0  0  0  0  0  0  0  0  0
   -3.7500    1.2990    0.0000 N   0  0  0  0  0  0  0  0  0  0  0  0
   -3.0000    2.5981    0.0000 C   0  0  0  0  0  0  0  0  0  0  0  0
   -1.5000    2.5981    0.0000 O   0  0  0  0  0  0  0  0  0  0  0  0
   -3.7500    3.8971    0.0000 C   0  0  0  0  0  0  0  0  0  0  0  0
   -3.0000    5.1962    0.0000 F   0  0  0  0  0  0  0  0  0  0  0  0
   -5.2500    3.8971    0.0000 C   0  0  0  0  0  0  0  0  0  0  0  0
   -6.0000    2.5981    0.0000 N   0  0  0  0  0  0  0  0  0  0  0  0
   -7.5000    2.5981    0.0000 C   0  0  0  0  0  0  0  0  0  0  0  0
   -8.3817    1.3846    0.0000 C   0  0  0  0  0  0  0  0  0  0  0  0
   -9.8083    1.8481    0.0000 C   0  0  0  0  0  0  0  0  0  0  0  0
   -9.8083    3.3481    0.0000 C   0  0  0  0  0  0  0  0  0  0  0  0
   -8.3817    3.8116    0.0000 O   0  0  0  0  0  0  0  0  0  0  0  0
   -5.2500    1.2990    0.0000 C   0  0  0  0  0  0  0  0  0  0  0  0
   -6.0000    0.0000    0.0000 O   0  0  0  0  0  0  0  0  0  0  0  0
   -0.7500    1.2990    0.0000 C   0  0  0  0  0  0  0  0  0  0  0  0
    0.7500    1.2990    0.0000 C   0  0  0  0  0  0  0  0  0  0  0  0
  1  2  2  0
  2  3  1  0
  3  4  1  0
  2  5  1  0
  5  6  2  0
  6  7  1  0
  7  8  2  0
  8  9  1  0
  9 10  1  0
 10 11  1  0
 11 12  2  0
 11 13  1  0
 13 14  1  0
 13 15  2  0
 15 16  1  0
 16 17  1  0
 17 18  1  0
 18 19  1  0
 19 20  1  0
 20 21  1  0
 16 22  1  0
 22 23  2  0
  8 24  1  0
 24 25  2  0
 25  5  1  0
 22 10  1  0
 21 17  1  0
M  END
>  <molecule_chembl_id>  (184) 
CHEMBL4759780

>  <canonical_smiles>  (184) 
O=C(NO)c1ccc(Cn2c(=O)c(F)cn(C3CCCO3)c2=O)cc1

>  <pchembl_value_mean>  (184) 
5.26

>  <document_chembl_id>  (184) 
CHEMBL4673207

$$$$

     RDKit          2D

 23 24  0  0  0  0  0  0  0  0999 V2000
    3.0000  -10.3923    0.0000 O   0  0  0  0  0  0  0  0  0  0  0  0
    1.5000  -10.3923    0.0000 C   0  0  0  0  0  0  0  0  0  0  0  0
    0.7500   -9.0933    0.0000 C   0  0  0  0  0  0  0  0  0  0  0  0
    1.5000   -7.7942    0.0000 C   0  0  0  0  0  0  0  0  0  0  0  0
    0.7500   -6.4952    0.0000 C   0  0  0  0  0  0  0  0  0  0  0  0
    1.5000   -5.1962    0.0000 C   0  0  0  0  0  0  0  0  0  0  0  0
    0.7500   -3.8971    0.0000 N   0  0  0  0  0  0  0  0  0  0  0  0
    1.5000   -2.5981    0.0000 C   0  0  0  0  0  0  0  0  0  0  0  0
    0.7500   -1.2990    0.0000 C   0  0  0  0  0  0  0  0  0  0  0  0
    1.5000    0.0000    0.0000 C   0  0  0  0  0  0  0  0  0  0  0  0
    0.7500    1.2990    0.0000 C   0  0  0  0  0  0  0  0  0  0  0  0
   -0.7500    1.2990    0.0000 C   0  0  0  0  0  0  0  0  0  0  0  0
   -1.5000    0.0000    0.0000 C   0  0  0  0  0  0  0  0  0  0  0  0
   -0.7500   -1.2990    0.0000 C   0  0  0  0  0  0  0  0  0  0  0  0
   -0.7500   -3.8971    0.0000 C   0  0  0  0  0  0  0  0  0  0  0  0
   -1.5000   -5.1962    0.0000 C   0  0  0  0  0  0  0  0  0  0  0  0
   -3.0000   -5.1962    0.0000 C   0  0  0  0  0  0  0  0  0  0  0  0
   -3.7500   -6.4952    0.0000 C   0  0  0  0  0  0  0  0  0  0  0  0
   -3.0000   -7.7942    0.0000 C   0  0  0  0  0  0  0  0  0  0  0  0
   -1.5000   -7.7942    0.0000 C   0  0  0  0  0  0  0  0  0  0  0  0
   -0.7500   -6.4952    0.0000 C   0  0  0  0  0  0  0  0  0  0  0  0
    0.7500  -11.6913    0.0000 N   0  0  0  0  0  0  0  0  0  0  0  0
    1.5000  -12.9904    0.0000 O   0  0  0  0  0  0  0  0  0  0  0  0
  1  2  2  0
  2  3  1  0
  3  4  1  0
  4  5  1  0
  5  6  1  0
  6  7  1  0
  7  8  1  0
  8  9  1  0
  9 10  2  0
 10 11  1  0
 11 12  2  0
 12 13  1  0
 13 14  2  0
  7 15  1  0
 15 16  1  0
 16 17  2  0
 17 18  1  0
 18 19  2  0
 19 20  1  0
 20 21  2  0
  2 22  1  0
 22 23  1  0
 14  9  1  0
 21 16  1  0
M  END
>  <molecule_chembl_id>  (185) 
CHEMBL4217705

>  <canonical_smiles>  (185) 
O=C(CCCCN(Cc1ccccc1)Cc1ccccc1)NO

>  <pchembl_value_mean>  (185) 
5.27

>  <document_chembl_id>  (185) 
CHEMBL4190328

$$$$

     RDKit          2D

 25 27  0  0  0  0  0  0  0  0999 V2000
    3.0000    0.0000    0.0000 N   0  0  0  0  0  0  0  0  0  0  0  0
    1.5000    0.0000    0.0000 C   0  0  0  0  0  0  0  0  0  0  0  0
    0.7500   -1.2990    0.0000 C   0  0  0  0  0  0  0  0  0  0  0  0
   -0.7500   -1.2990    0.0000 C   0  0  0  0  0  0  0  0  0  0  0  0
   -1.5000    0.0000    0.0000 C   0  0  0  0  0  0  0  0  0  0  0  0
   -0.7500    1.2990    0.0000 C   0  0  0  0  0  0  0  0  0  0  0  0
    0.7500    1.2990    0.0000 C   0  0  0  0  0  0  0  0  0  0  0  0
    1.5000    2.5981    0.0000 N   0  0  0  0  0  0  0  0  0  0  0  0
    0.7500    3.8971    0.0000 C   0  0  0  0  0  0  0  0  0  0  0  0
   -0.7500    3.8971    0.0000 O   0  0  0  0  0  0  0  0  0  0  0  0
    1.5000    5.1962    0.0000 C   0  0  0  0  0  0  0  0  0  0  0  0
    3.0000    5.1962    0.0000 C   0  0  0  0  0  0  0  0  0  0  0  0
    3.7500    6.4952    0.0000 C   0  0  0  0  0  0  0  0  0  0  0  0
    3.0000    7.7942    0.0000 C   0  0  0  0  0  0  0  0  0  0  0  0
    3.7500    9.0933    0.0000 C   0  0  0  0  0  0  0  0  0  0  0  0
    3.0000   10.3923    0.0000 O   0  0  0  0  0  0  0  0  0  0  0  0
    5.2500    9.0933    0.0000 N   0  0  0  0  0  0  0  0  0  0  0  0
    6.0000   10.3923    0.0000 C   0  0  0  0  0  0  0  0  0  0  0  0
    7.5000   10.3923    0.0000 C   0  0  0  0  0  0  0  0  0  0  0  0
    8.2500   11.6913    0.0000 C   0  0  0  0  0  0  0  0  0  0  0  0
    7.5000   12.9904    0.0000 C   0  0  0  0  0  0  0  0  0  0  0  0
    6.0000   12.9904    0.0000 C   0  0  0  0  0  0  0  0  0  0  0  0
    5.2500   11.6913    0.0000 C   0  0  0  0  0  0  0  0  0  0  0  0
    1.5000    7.7942    0.0000 C   0  0  0  0  0  0  0  0  0  0  0  0
    0.7500    6.4952    0.0000 C   0  0  0  0  0  0  0  0  0  0  0  0
  1  2  1  0
  2  3  2  0
  3  4  1  0
  4  5  2  0
  5  6  1  0
  6  7  2  0
  7  8  1  0
  8  9  1  0
  9 10  2  0
  9 11  1  0
 11 12  2  0
 12 13  1  0
 13 14  2  0
 14 15  1  0
 15 16  2  0
 15 17  1  0
 17 18  1  0
 18 19  2  0
 19 20  1  0
 20 21  2  0
 21 22  1  0
 22 23  2  0
 14 24  1  0
 24 25  2  0
  7  2  1  0
 25 11  1  0
 23 18  1  0
M  END
>  <molecule_chembl_id>  (186) 
CHEMBL4440264

>  <canonical_smiles>  (186) 
Nc1ccccc1NC(=O)c1ccc(C(=O)Nc2ccccc2)cc1

>  <pchembl_value_mean>  (186) 
5.27

>  <document_chembl_id>  (186) 
CHEMBL4351000

$$$$

     RDKit          2D

 48 53  0  0  0  0  0  0  0  0999 V2000
    7.4466    3.7867    0.0000 C   0  0  0  0  0  0  0  0  0  0  0  0
    6.1476    4.5367    0.0000 O   0  0  0  0  0  0  0  0  0  0  0  0
    4.8486    3.7867    0.0000 C   0  0  0  0  0  0  0  0  0  0  0  0
    3.5495    4.5367    0.0000 C   0  0  0  0  0  0  0  0  0  0  0  0
    2.2505    3.7867    0.0000 C   0  0  0  0  0  0  0  0  0  0  0  0
    2.2505    2.2867    0.0000 C   0  0  0  0  0  0  0  0  0  0  0  0
    3.5495    1.5367    0.0000 C   0  0  0  0  0  0  0  0  0  0  0  0
    3.5495    0.0367    0.0000 O   0  0  0  0  0  0  0  0  0  0  0  0
    4.8486   -0.7133    0.0000 C   0  0  0  0  0  0  0  0  0  0  0  0
    4.8486    2.2867    0.0000 C   0  0  0  0  0  0  0  0  0  0  0  0
    6.1476    1.5367    0.0000 O   0  0  0  0  0  0  0  0  0  0  0  0
    6.1476    0.0367    0.0000 C   0  0  0  0  0  0  0  0  0  0  0  0
    1.0777    1.3515    0.0000 C   0  0  0  0  0  0  0  0  0  0  0  0
    1.7286    0.0000    0.0000 C   0  0  0  0  0  0  0  0  0  0  0  0
    1.0777   -1.3515    0.0000 C   0  0  0  0  0  0  0  0  0  0  0  0
   -0.3846   -1.6852    0.0000 C   0  0  0  0  0  0  0  0  0  0  0  0
   -0.7184   -3.1476    0.0000 O   0  0  0  0  0  0  0  0  0  0  0  0
   -2.1518   -3.5898    0.0000 C   0  0  0  0  0  0  0  0  0  0  0  0
   -1.5574   -0.7500    0.0000 C   0  0  0  0  0  0  0  0  0  0  0  0
   -2.9088   -1.4008    0.0000 O   0  0  0  0  0  0  0  0  0  0  0  0
   -1.5574    0.7500    0.0000 C   0  0  0  0  0  0  0  0  0  0  0  0
   -0.3846    1.6852    0.0000 C   0  0  0  0  0  0  0  0  0  0  0  0
   -1.0355    3.0367    0.0000 C   0  0  0  0  0  0  0  0  0  0  0  0
   -2.5355    3.0367    0.0000 N   0  0  0  0  0  0  0  0  0  0  0  0
   -3.2855    4.3357    0.0000 C   0  0  0  0  0  0  0  0  0  0  0  0
   -4.7855    4.3357    0.0000 C   0  0  0  0  0  0  0  0  0  0  0  0
   -5.5355    5.6348    0.0000 C   0  0  0  0  0  0  0  0  0  0  0  0
   -7.0355    5.6348    0.0000 C   0  0  0  0  0  0  0  0  0  0  0  0
   -7.7855    4.3357    0.0000 C   0  0  0  0  0  0  0  0  0  0  0  0
   -7.0355    3.0367    0.0000 C   0  0  0  0  0  0  0  0  0  0  0  0
   -7.7855    1.7376    0.0000 C   0  0  0  0  0  0  0  0  0  0  0  0
   -7.0355    0.4386    0.0000 O   0  0  0  0  0  0  0  0  0  0  0  0
   -9.2855    1.7376    0.0000 N   0  0  0  0  0  0  0  0  0  0  0  0
  -10.0355    0.4386    0.0000 C   0  0  0  0  0  0  0  0  0  0  0  0
  -11.5355    0.4386    0.0000 C   0  0  0  0  0  0  0  0  0  0  0  0
  -12.2855   -0.8604    0.0000 C   0  0  0  0  0  0  0  0  0  0  0  0
  -13.7855   -0.8604    0.0000 C   0  0  0  0  0  0  0  0  0  0  0  0
  -14.6671   -2.0740    0.0000 C   0  0  0  0  0  0  0  0  0  0  0  0
  -16.0937   -1.6104    0.0000 C   0  0  0  0  0  0  0  0  0  0  0  0
  -16.0937   -0.1104    0.0000 C   0  0  0  0  0  0  0  0  0  0  0  0
  -14.6671    0.3531    0.0000 S   0  0  0  0  0  0  0  0  0  0  0  0
  -11.5355   -2.1595    0.0000 C   0  0  0  0  0  0  0  0  0  0  0  0
  -10.0355   -2.1595    0.0000 C   0  0  0  0  0  0  0  0  0  0  0  0
   -9.2855   -0.8604    0.0000 C   0  0  0  0  0  0  0  0  0  0  0  0
   -7.7855   -0.8604    0.0000 N   0  0  0  0  0  0  0  0  0  0  0  0
   -5.5355    3.0367    0.0000 C   0  0  0  0  0  0  0  0  0  0  0  0
   -0.3846    4.3881    0.0000 C   0  0  0  0  0  0  0  0  0  0  0  0
    1.0777    4.7219    0.0000 C   0  0  0  0  0  0  0  0  0  0  0  0
  1  2  1  0
  2  3  1  0
  3  4  2  0
  4  5  1  0
  5  6  2  0
  6  7  1  0
  7  8  1  0
  8  9  1  0
  7 10  2  0
 10 11  1  0
 11 12  1  0
  6 13  1  0
 13 14  2  0
 14 15  1  0
 15 16  2  0
 16 17  1  0
 17 18  1  0
 16 19  1  0
 19 20  2  0
 19 21  1  0
 21 22  2  0
 22 23  1  0
 23 24  1  0
 24 25  1  0
 25 26  1  0
 26 27  2  0
 27 28  1  0
 28 29  2  0
 29 30  1  0
 30 31  1  0
 31 32  2  0
 31 33  1  0
 33 34  1  0
 34 35  2  0
 35 36  1  0
 36 37  1  0
 37 38  2  0
 38 39  1  0
 39 40  2  0
 40 41  1  0
 36 42  2  0
 42 43  1  0
 43 44  2  0
 44 45  1  0
 30 46  2  0
 23 47  1  0
 47 48  1  0
 10  3  1  0
 22 13  1  0
 46 26  1  0
 48  5  1  0
 44 34  1  0
 41 37  1  0
M  END
>  <molecule_chembl_id>  (187) 
CHEMBL3417292

>  <canonical_smiles>  (187) 
COc1cc2c(c(OC)c1OC)-c1ccc(OC)c(=O)cc1C(NCc1cccc(C(=O)Nc3cc(-c4cccs4)ccc3N)c1)CC2

>  <pchembl_value_mean>  (187) 
5.27

>  <document_chembl_id>  (187) 
CHEMBL3414494

$$$$

     RDKit          2D

 31 34  0  0  0  0  0  0  0  0999 V2000
    3.7500   -1.2990    0.0000 C   0  0  0  0  0  0  0  0  0  0  0  0
    3.0000    0.0000    0.0000 O   0  0  0  0  0  0  0  0  0  0  0  0
    1.5000    0.0000    0.0000 C   0  0  0  0  0  0  0  0  0  0  0  0
    0.7500   -1.2990    0.0000 C   0  0  0  0  0  0  0  0  0  0  0  0
   -0.7500   -1.2990    0.0000 C   0  0  0  0  0  0  0  0  0  0  0  0
   -1.5000    0.0000    0.0000 C   0  0  0  0  0  0  0  0  0  0  0  0
   -3.0000    0.0000    0.0000 N   0  0  0  0  0  0  0  0  0  0  0  0
   -3.7500    1.2990    0.0000 C   0  0  0  0  0  0  0  0  0  0  0  0
   -3.0000    2.5981    0.0000 O   0  0  0  0  0  0  0  0  0  0  0  0
   -5.2500    1.2990    0.0000 C   0  0  0  0  0  0  0  0  0  0  0  0
   -6.0000    2.5981    0.0000 C   0  0  0  0  0  0  0  0  0  0  0  0
   -7.5000    2.5981    0.0000 C   0  0  0  0  0  0  0  0  0  0  0  0
   -8.3817    1.3846    0.0000 C   0  0  0  0  0  0  0  0  0  0  0  0
   -9.8083    1.8481    0.0000 N   0  0  0  0  0  0  0  0  0  0  0  0
  -11.0218    0.9664    0.0000 C   0  0  0  0  0  0  0  0  0  0  0  0
  -12.3921    1.5765    0.0000 C   0  0  0  0  0  0  0  0  0  0  0  0
  -13.6056    0.6948    0.0000 C   0  0  0  0  0  0  0  0  0  0  0  0
  -13.4488   -0.7970    0.0000 C   0  0  0  0  0  0  0  0  0  0  0  0
  -12.0785   -1.4071    0.0000 C   0  0  0  0  0  0  0  0  0  0  0  0
  -10.8650   -0.5254    0.0000 C   0  0  0  0  0  0  0  0  0  0  0  0
   -9.8083    3.3481    0.0000 N   0  0  0  0  0  0  0  0  0  0  0  0
   -8.3817    3.8116    0.0000 C   0  0  0  0  0  0  0  0  0  0  0  0
   -7.9182    5.2382    0.0000 C   0  0  0  0  0  0  0  0  0  0  0  0
   -6.4509    5.5501    0.0000 C   0  0  0  0  0  0  0  0  0  0  0  0
   -5.9874    6.9766    0.0000 C   0  0  0  0  0  0  0  0  0  0  0  0
   -6.9911    8.0914    0.0000 C   0  0  0  0  0  0  0  0  0  0  0  0
   -6.5276    9.5179    0.0000 Br  0  0  0  0  0  0  0  0  0  0  0  0
   -8.4583    7.7795    0.0000 C   0  0  0  0  0  0  0  0  0  0  0  0
   -8.9218    6.3529    0.0000 C   0  0  0  0  0  0  0  0  0  0  0  0
   -0.7500    1.2990    0.0000 C   0  0  0  0  0  0  0  0  0  0  0  0
    0.7500    1.2990    0.0000 C   0  0  0  0  0  0  0  0  0  0  0  0
  1  2  1  0
  2  3  1  0
  3  4  2  0
  4  5  1  0
  5  6  2  0
  6  7  1  0
  7  8  1  0
  8  9  2  0
  8 10  1  0
 10 11  2  3
 11 12  1  0
 12 13  2  0
 13 14  1  0
 14 15  1  0
 15 16  2  0
 16 17  1  0
 17 18  2  0
 18 19  1  0
 19 20  2  0
 14 21  1  0
 21 22  2  0
 22 23  1  0
 23 24  2  0
 24 25  1  0
 25 26  2  0
 26 27  1  0
 26 28  1  0
 28 29  2  0
  6 30  1  0
 30 31  2  0
 31  3  1  0
 22 12  1  0
 29 23  1  0
 20 15  1  0
M  END
>  <molecule_chembl_id>  (188) 
CHEMBL2047616

>  <canonical_smiles>  (188) 
COc1ccc(NC(=O)C=Cc2cn(-c3ccccc3)nc2-c2ccc(Br)cc2)cc1

>  <pchembl_value_mean>  (188) 
5.27

>  <document_chembl_id>  (188) 
CHEMBL2046430

$$$$

     RDKit          2D

 32 35  0  0  0  0  0  0  0  0999 V2000
    2.6401   -3.1891    0.0000 C   0  0  0  0  0  0  0  0  0  0  0  0
    1.2135   -2.7256    0.0000 C   0  0  0  0  0  0  0  0  0  0  0  0
    0.7500   -1.2990    0.0000 C   0  0  0  0  0  0  0  0  0  0  0  0
    1.5000    0.0000    0.0000 C   0  0  0  0  0  0  0  0  0  0  0  0
    0.7500    1.2990    0.0000 C   0  0  0  0  0  0  0  0  0  0  0  0
   -0.7500    1.2990    0.0000 C   0  0  0  0  0  0  0  0  0  0  0  0
   -1.5000    2.5981    0.0000 N   0  0  0  0  0  0  0  0  0  0  0  0
   -0.7500    3.8971    0.0000 C   0  0  0  0  0  0  0  0  0  0  0  0
   -3.0000    2.5981    0.0000 C   0  0  0  0  0  0  0  0  0  0  0  0
   -3.7500    3.8971    0.0000 C   0  0  0  0  0  0  0  0  0  0  0  0
   -5.2500    3.8971    0.0000 C   0  0  0  0  0  0  0  0  0  0  0  0
   -6.0000    2.5981    0.0000 N   0  0  0  0  0  0  0  0  0  0  0  0
   -5.2500    1.2990    0.0000 C   0  0  0  0  0  0  0  0  0  0  0  0
   -6.0000    0.0000    0.0000 N   0  0  0  0  0  0  0  0  0  0  0  0
   -7.5000    0.0000    0.0000 C   0  0  0  0  0  0  0  0  0  0  0  0
   -8.2500    1.2990    0.0000 C   0  0  0  0  0  0  0  0  0  0  0  0
   -9.7500    1.2990    0.0000 C   0  0  0  0  0  0  0  0  0  0  0  0
  -10.5000    0.0000    0.0000 C   0  0  0  0  0  0  0  0  0  0  0  0
  -12.0000    0.0000    0.0000 C   0  0  0  0  0  0  0  0  0  0  0  0
  -12.7500    1.2990    0.0000 C   0  0  0  0  0  0  0  0  0  0  0  0
  -14.2500    1.2990    0.0000 C   0  0  0  0  0  0  0  0  0  0  0  0
  -15.0000    0.0000    0.0000 O   0  0  0  0  0  0  0  0  0  0  0  0
  -15.0000    2.5981    0.0000 N   0  0  0  0  0  0  0  0  0  0  0  0
  -16.5000    2.5981    0.0000 O   0  0  0  0  0  0  0  0  0  0  0  0
   -9.7500   -1.2990    0.0000 C   0  0  0  0  0  0  0  0  0  0  0  0
   -8.2500   -1.2990    0.0000 C   0  0  0  0  0  0  0  0  0  0  0  0
   -3.7500    1.2990    0.0000 N   0  0  0  0  0  0  0  0  0  0  0  0
   -1.5000    0.0000    0.0000 C   0  0  0  0  0  0  0  0  0  0  0  0
   -0.7500   -1.2990    0.0000 C   0  0  0  0  0  0  0  0  0  0  0  0
   -1.2135   -2.7256    0.0000 N   0  0  0  0  0  0  0  0  0  0  0  0
   -0.0000   -3.6073    0.0000 N   0  0  0  0  0  0  0  0  0  0  0  0
   -0.0000   -5.1073    0.0000 C   0  0  0  0  0  0  0  0  0  0  0  0
  1  2  1  0
  2  3  2  0
  3  4  1  0
  4  5  2  0
  5  6  1  0
  6  7  1  0
  7  8  1  0
  7  9  1  0
  9 10  2  0
 10 11  1  0
 11 12  2  0
 12 13  1  0
 13 14  1  0
 14 15  1  0
 15 16  2  0
 16 17  1  0
 17 18  2  0
 18 19  1  0
 19 20  2  3
 20 21  1  0
 21 22  2  0
 21 23  1  0
 23 24  1  0
 18 25  1  0
 25 26  2  0
 13 27  2  0
  6 28  2  0
 28 29  1  0
 29 30  2  0
 30 31  1  0
 31 32  1  0
 31  2  1  0
 29  3  1  0
 27  9  1  0
 26 15  1  0
M  END
>  <molecule_chembl_id>  (189) 
CHEMBL4216804

>  <canonical_smiles>  (189) 
Cc1c2ccc(N(C)c3ccnc(Nc4ccc(C=CC(=O)NO)cc4)n3)cc2nn1C

>  <pchembl_value_mean>  (189) 
5.28

>  <document_chembl_id>  (189) 
CHEMBL4190394

$$$$

     RDKit          2D

 30 33  0  0  0  0  0  0  0  0999 V2000
   -0.0000   -5.1073    0.0000 C   0  0  0  0  0  0  0  0  0  0  0  0
   -0.0000   -3.6073    0.0000 C   0  0  0  0  0  0  0  0  0  0  0  0
    1.2135   -2.7256    0.0000 N   0  0  0  0  0  0  0  0  0  0  0  0
    0.7500   -1.2990    0.0000 C   0  0  0  0  0  0  0  0  0  0  0  0
    1.5000    0.0000    0.0000 C   0  0  0  0  0  0  0  0  0  0  0  0
    0.7500    1.2990    0.0000 C   0  0  0  0  0  0  0  0  0  0  0  0
   -0.7500    1.2990    0.0000 C   0  0  0  0  0  0  0  0  0  0  0  0
   -1.5000    0.0000    0.0000 C   0  0  0  0  0  0  0  0  0  0  0  0
   -0.7500   -1.2990    0.0000 C   0  0  0  0  0  0  0  0  0  0  0  0
   -1.2135   -2.7256    0.0000 C   0  0  0  0  0  0  0  0  0  0  0  0
   -2.6401   -3.1891    0.0000 C   0  0  0  0  0  0  0  0  0  0  0  0
   -2.9520   -4.6564    0.0000 C   0  0  0  0  0  0  0  0  0  0  0  0
   -4.3786   -5.1199    0.0000 C   0  0  0  0  0  0  0  0  0  0  0  0
   -5.4933   -4.1162    0.0000 C   0  0  0  0  0  0  0  0  0  0  0  0
   -6.9199   -4.5797    0.0000 C   0  0  0  0  0  0  0  0  0  0  0  0
   -7.2317   -6.0469    0.0000 C   0  0  0  0  0  0  0  0  0  0  0  0
   -6.1170   -7.0506    0.0000 C   0  0  0  0  0  0  0  0  0  0  0  0
   -4.6904   -6.5871    0.0000 C   0  0  0  0  0  0  0  0  0  0  0  0
   -3.5757   -7.5908    0.0000 C   0  0  0  0  0  0  0  0  0  0  0  0
   -3.8876   -9.0580    0.0000 C   0  0  0  0  0  0  0  0  0  0  0  0
   -2.7729  -10.0617    0.0000 C   0  0  0  0  0  0  0  0  0  0  0  0
   -1.3463   -9.5982    0.0000 C   0  0  0  0  0  0  0  0  0  0  0  0
   -0.2316  -10.6019    0.0000 C   0  0  0  0  0  0  0  0  0  0  0  0
   -0.5434  -12.0691    0.0000 C   0  0  0  0  0  0  0  0  0  0  0  0
    0.5713  -13.0728    0.0000 C   0  0  0  0  0  0  0  0  0  0  0  0
    1.9979  -12.6093    0.0000 O   0  0  0  0  0  0  0  0  0  0  0  0
    0.2594  -14.5400    0.0000 N   0  0  0  0  0  0  0  0  0  0  0  0
    1.3741  -15.5437    0.0000 O   0  0  0  0  0  0  0  0  0  0  0  0
   -1.0344   -8.1310    0.0000 C   0  0  0  0  0  0  0  0  0  0  0  0
   -2.1491   -7.1273    0.0000 C   0  0  0  0  0  0  0  0  0  0  0  0
  1  2  1  0
  2  3  1  0
  3  4  1  0
  4  5  2  0
  5  6  1  0
  6  7  2  0
  7  8  1  0
  8  9  2  0
  9 10  1  0
 10 11  1  0
 11 12  2  3
 12 13  1  0
 13 14  2  0
 14 15  1  0
 15 16  2  0
 16 17  1  0
 17 18  2  0
 18 19  1  0
 19 20  2  0
 20 21  1  0
 21 22  2  0
 22 23  1  0
 23 24  2  3
 24 25  1  0
 25 26  2  0
 25 27  1  0
 27 28  1  0
 22 29  1  0
 29 30  2  0
 10  2  2  0
 18 13  1  0
 30 19  1  0
  9  4  1  0
M  END
>  <molecule_chembl_id>  (190) 
CHEMBL3793310

>  <canonical_smiles>  (190) 
Cc1[nH]c2ccccc2c1C=Cc1ccccc1-c1ccc(C=CC(=O)NO)cc1

>  <pchembl_value_mean>  (190) 
5.28

>  <document_chembl_id>  (190) 
CHEMBL3792283

$$$$

     RDKit          2D

 22 23  0  0  0  0  0  0  0  0999 V2000
   10.4688  -10.2562    0.0000 O   0  0  0  0  0  0  0  0  0  0  0  0
    9.2553  -11.1379    0.0000 C   0  0  0  0  0  0  0  0  0  0  0  0
    7.8850  -10.5278    0.0000 C   0  0  0  0  0  0  0  0  0  0  0  0
    7.7282   -9.0360    0.0000 C   0  0  0  0  0  0  0  0  0  0  0  0
    6.3579   -8.4259    0.0000 C   0  0  0  0  0  0  0  0  0  0  0  0
    6.2011   -6.9341    0.0000 C   0  0  0  0  0  0  0  0  0  0  0  0
    4.8308   -6.3240    0.0000 C   0  0  0  0  0  0  0  0  0  0  0  0
    4.6740   -4.8322    0.0000 C   0  0  0  0  0  0  0  0  0  0  0  0
    3.3037   -4.2221    0.0000 C   0  0  0  0  0  0  0  0  0  0  0  0
    2.9918   -2.7549    0.0000 N   0  0  0  0  0  0  0  0  0  0  0  0
    1.5000   -2.5981    0.0000 C   0  0  0  0  0  0  0  0  0  0  0  0
    0.7500   -1.2990    0.0000 C   0  0  0  0  0  0  0  0  0  0  0  0
    1.5000    0.0000    0.0000 C   0  0  0  0  0  0  0  0  0  0  0  0
    0.7500    1.2990    0.0000 C   0  0  0  0  0  0  0  0  0  0  0  0
   -0.7500    1.2990    0.0000 C   0  0  0  0  0  0  0  0  0  0  0  0
   -1.5000    2.5981    0.0000 Cl  0  0  0  0  0  0  0  0  0  0  0  0
   -1.5000    0.0000    0.0000 C   0  0  0  0  0  0  0  0  0  0  0  0
   -0.7500   -1.2990    0.0000 C   0  0  0  0  0  0  0  0  0  0  0  0
    0.8899   -3.9684    0.0000 N   0  0  0  0  0  0  0  0  0  0  0  0
    2.0046   -4.9721    0.0000 O   0  0  0  0  0  0  0  0  0  0  0  0
    9.4121  -12.6296    0.0000 N   0  0  0  0  0  0  0  0  0  0  0  0
   10.7824  -13.2397    0.0000 O   0  0  0  0  0  0  0  0  0  0  0  0
  1  2  2  0
  2  3  1  0
  3  4  1  0
  4  5  1  0
  5  6  1  0
  6  7  1  0
  7  8  1  0
  8  9  1  0
  9 10  2  0
 10 11  1  0
 11 12  1  0
 12 13  2  0
 13 14  1  0
 14 15  2  0
 15 16  1  0
 15 17  1  0
 17 18  2  0
 11 19  2  0
 19 20  1  0
  2 21  1  0
 21 22  1  0
 20  9  1  0
 18 12  1  0
M  END
>  <molecule_chembl_id>  (191) 
CHEMBL3585963

>  <canonical_smiles>  (191) 
O=C(CCCCCCc1nc(-c2ccc(Cl)cc2)no1)NO

>  <pchembl_value_mean>  (191) 
5.29

>  <document_chembl_id>  (191) 
CHEMBL3585316

$$$$

     RDKit          2D

 29 32  0  0  0  0  0  0  0  0999 V2000
   -2.7729  -10.0617    0.0000 O   0  0  0  0  0  0  0  0  0  0  0  0
   -3.8876   -9.0580    0.0000 C   0  0  0  0  0  0  0  0  0  0  0  0
   -5.3142   -9.5216    0.0000 N   0  0  0  0  0  0  0  0  0  0  0  0
   -5.6260  -10.9888    0.0000 O   0  0  0  0  0  0  0  0  0  0  0  0
   -3.5757   -7.5908    0.0000 C   0  0  0  0  0  0  0  0  0  0  0  0
   -4.6904   -6.5871    0.0000 C   0  0  0  0  0  0  0  0  0  0  0  0
   -4.3786   -5.1199    0.0000 C   0  0  0  0  0  0  0  0  0  0  0  0
   -2.9520   -4.6564    0.0000 C   0  0  0  0  0  0  0  0  0  0  0  0
   -2.6401   -3.1891    0.0000 C   0  0  0  0  0  0  0  0  0  0  0  0
   -1.2135   -2.7256    0.0000 N   0  0  0  0  0  0  0  0  0  0  0  0
   -0.0000   -3.6073    0.0000 C   0  0  0  0  0  0  0  0  0  0  0  0
    1.2135   -2.7256    0.0000 C   0  0  0  0  0  0  0  0  0  0  0  0
    0.7500   -1.2990    0.0000 C   0  0  0  0  0  0  0  0  0  0  0  0
    1.5000    0.0000    0.0000 C   0  0  0  0  0  0  0  0  0  0  0  0
    0.7500    1.2990    0.0000 C   0  0  0  0  0  0  0  0  0  0  0  0
    1.5000    2.5981    0.0000 C   0  0  0  0  0  0  0  0  0  0  0  0
    0.7500    3.8971    0.0000 O   0  0  0  0  0  0  0  0  0  0  0  0
    3.0000    2.5981    0.0000 C   0  0  0  0  0  0  0  0  0  0  0  0
    3.7500    1.2990    0.0000 C   0  0  0  0  0  0  0  0  0  0  0  0
    5.2500    1.2990    0.0000 C   0  0  0  0  0  0  0  0  0  0  0  0
    6.0000    2.5981    0.0000 C   0  0  0  0  0  0  0  0  0  0  0  0
    7.5000    2.5981    0.0000 F   0  0  0  0  0  0  0  0  0  0  0  0
    5.2500    3.8971    0.0000 C   0  0  0  0  0  0  0  0  0  0  0  0
    3.7500    3.8971    0.0000 C   0  0  0  0  0  0  0  0  0  0  0  0
   -0.7500    1.2990    0.0000 C   0  0  0  0  0  0  0  0  0  0  0  0
   -1.5000    0.0000    0.0000 C   0  0  0  0  0  0  0  0  0  0  0  0
   -0.7500   -1.2990    0.0000 C   0  0  0  0  0  0  0  0  0  0  0  0
   -1.8373   -5.6601    0.0000 C   0  0  0  0  0  0  0  0  0  0  0  0
   -2.1491   -7.1273    0.0000 C   0  0  0  0  0  0  0  0  0  0  0  0
  1  2  2  0
  2  3  1  0
  3  4  1  0
  2  5  1  0
  5  6  2  0
  6  7  1  0
  7  8  2  0
  8  9  1  0
  9 10  1  0
 10 11  1  0
 11 12  2  0
 12 13  1  0
 13 14  2  0
 14 15  1  0
 15 16  1  0
 16 17  2  0
 16 18  1  0
 18 19  2  0
 19 20  1  0
 20 21  2  0
 21 22  1  0
 21 23  1  0
 23 24  2  0
 15 25  2  0
 25 26  1  0
 26 27  2  0
  8 28  1  0
 28 29  2  0
 29  5  1  0
 27 10  1  0
 27 13  1  0
 24 18  1  0
M  END
>  <molecule_chembl_id>  (192) 
CHEMBL4215954

>  <canonical_smiles>  (192) 
O=C(NO)c1ccc(Cn2ccc3cc(C(=O)c4ccc(F)cc4)ccc32)cc1

>  <pchembl_value_mean>  (192) 
5.29

>  <document_chembl_id>  (192) 
CHEMBL4196108

$$$$

     RDKit          2D

 30 32  0  0  0  0  0  0  0  0999 V2000
    3.0000    0.0000    0.0000 N   0  0  0  0  0  0  0  0  0  0  0  0
    1.5000    0.0000    0.0000 C   0  0  0  0  0  0  0  0  0  0  0  0
    0.7500   -1.2990    0.0000 C   0  0  0  0  0  0  0  0  0  0  0  0
   -0.7500   -1.2990    0.0000 C   0  0  0  0  0  0  0  0  0  0  0  0
   -1.5000    0.0000    0.0000 C   0  0  0  0  0  0  0  0  0  0  0  0
   -0.7500    1.2990    0.0000 C   0  0  0  0  0  0  0  0  0  0  0  0
    0.7500    1.2990    0.0000 C   0  0  0  0  0  0  0  0  0  0  0  0
    1.5000    2.5981    0.0000 N   0  0  0  0  0  0  0  0  0  0  0  0
    0.7500    3.8971    0.0000 C   0  0  0  0  0  0  0  0  0  0  0  0
   -0.7500    3.8971    0.0000 O   0  0  0  0  0  0  0  0  0  0  0  0
    1.5000    5.1962    0.0000 C   0  0  0  0  0  0  0  0  0  0  0  0
    0.7500    6.4952    0.0000 C   0  0  0  0  0  0  0  0  0  0  0  0
    1.5000    7.7942    0.0000 C   0  0  0  0  0  0  0  0  0  0  0  0
    0.7500    9.0933    0.0000 C   0  0  0  0  0  0  0  0  0  0  0  0
    1.5000   10.3923    0.0000 C   0  0  0  0  0  0  0  0  0  0  0  0
    0.7500   11.6913    0.0000 C   0  0  0  0  0  0  0  0  0  0  0  0
    1.5000   12.9904    0.0000 C   0  0  0  0  0  0  0  0  0  0  0  0
    0.8899   14.3607    0.0000 N   0  0  0  0  0  0  0  0  0  0  0  0
    2.0046   15.3644    0.0000 C   0  0  0  0  0  0  0  0  0  0  0  0
    1.8478   16.8562    0.0000 C   0  0  0  0  0  0  0  0  0  0  0  0
    3.0613   17.7379    0.0000 C   0  0  0  0  0  0  0  0  0  0  0  0
    2.9046   19.2296    0.0000 C   0  0  0  0  0  0  0  0  0  0  0  0
    1.5342   19.8397    0.0000 C   0  0  0  0  0  0  0  0  0  0  0  0
    0.3207   18.9581    0.0000 C   0  0  0  0  0  0  0  0  0  0  0  0
   -1.0496   19.5682    0.0000 N   0  0  0  0  0  4  0  0  0  0  0  0
   -2.2631   18.6865    0.0000 O   0  0  0  0  0  0  0  0  0  0  0  0
   -1.2064   21.0600    0.0000 O   0  0  0  0  0  1  0  0  0  0  0  0
    0.4775   17.4663    0.0000 C   0  0  0  0  0  0  0  0  0  0  0  0
    3.3037   14.6144    0.0000 N   0  0  0  0  0  0  0  0  0  0  0  0
    2.9918   13.1472    0.0000 O   0  0  0  0  0  0  0  0  0  0  0  0
  1  2  1  0
  2  3  2  0
  3  4  1  0
  4  5  2  0
  5  6  1  0
  6  7  2  0
  7  8  1  0
  8  9  1  0
  9 10  2  0
  9 11  1  0
 11 12  1  0
 12 13  1  0
 13 14  1  0
 14 15  1  0
 15 16  1  0
 16 17  1  0
 17 18  2  0
 18 19  1  0
 19 20  1  0
 20 21  2  0
 21 22  1  0
 22 23  2  0
 23 24  1  0
 24 25  1  0
 25 26  2  0
 25 27  1  0
 24 28  2  0
 19 29  2  0
 29 30  1  0
  7  2  1  0
 30 17  1  0
 28 20  1  0
M  CHG  2  25   1  27  -1
M  END
>  <molecule_chembl_id>  (193) 
CHEMBL3585977

>  <canonical_smiles>  (193) 
Nc1ccccc1NC(=O)CCCCCCc1nc(-c2cccc([N+](=O)[O-])c2)no1

>  <pchembl_value_mean>  (193) 
5.29

>  <document_chembl_id>  (193) 
CHEMBL3585316

$$$$

     RDKit          2D

 21 21  0  0  0  0  0  0  0  0999 V2000
   15.0000   -5.1962    0.0000 O   0  0  0  0  0  0  0  0  0  0  0  0
   14.2500   -6.4952    0.0000 C   0  0  0  0  0  0  0  0  0  0  0  0
   12.7500   -6.4952    0.0000 C   0  0  0  0  0  0  0  0  0  0  0  0
   12.0000   -5.1962    0.0000 C   0  0  0  0  0  0  0  0  0  0  0  0
   10.5000   -5.1962    0.0000 C   0  0  0  0  0  0  0  0  0  0  0  0
    9.7500   -3.8971    0.0000 C   0  0  0  0  0  0  0  0  0  0  0  0
    8.2500   -3.8971    0.0000 C   0  0  0  0  0  0  0  0  0  0  0  0
    7.5000   -2.5981    0.0000 C   0  0  0  0  0  0  0  0  0  0  0  0
    6.0000   -2.5981    0.0000 C   0  0  0  0  0  0  0  0  0  0  0  0
    5.2500   -3.8971    0.0000 O   0  0  0  0  0  0  0  0  0  0  0  0
    5.2500   -1.2990    0.0000 N   0  0  0  0  0  0  0  0  0  0  0  0
    3.7500   -1.2990    0.0000 C   0  0  0  0  0  0  0  0  0  0  0  0
    3.0000    0.0000    0.0000 C   0  0  0  0  0  0  0  0  0  0  0  0
    1.5000    0.0000    0.0000 C   0  0  0  0  0  0  0  0  0  0  0  0
    0.7500   -1.2990    0.0000 C   0  0  0  0  0  0  0  0  0  0  0  0
   -0.7500   -1.2990    0.0000 C   0  0  0  0  0  0  0  0  0  0  0  0
   -1.5000    0.0000    0.0000 C   0  0  0  0  0  0  0  0  0  0  0  0
   -0.7500    1.2990    0.0000 C   0  0  0  0  0  0  0  0  0  0  0  0
    0.7500    1.2990    0.0000 C   0  0  0  0  0  0  0  0  0  0  0  0
   15.0000   -7.7942    0.0000 N   0  0  0  0  0  0  0  0  0  0  0  0
   16.5000   -7.7942    0.0000 O   0  0  0  0  0  0  0  0  0  0  0  0
  1  2  2  0
  2  3  1  0
  3  4  1  0
  4  5  1  0
  5  6  1  0
  6  7  1  0
  7  8  1  0
  8  9  1  0
  9 10  2  0
  9 11  1  0
 11 12  1  0
 12 13  1  0
 13 14  1  0
 14 15  2  0
 15 16  1  0
 16 17  2  0
 17 18  1  0
 18 19  2  0
  2 20  1  0
 20 21  1  0
 19 14  1  0
M  END
>  <molecule_chembl_id>  (194) 
CHEMBL483477

>  <canonical_smiles>  (194) 
O=C(CCCCCCC(=O)NCCc1ccccc1)NO

>  <pchembl_value_mean>  (194) 
5.29

>  <document_chembl_id>  (194) 
CHEMBL3098008

$$$$

     RDKit          2D

 32 35  0  0  0  0  0  0  0  0999 V2000
    3.7500    1.2990    0.0000 O   0  0  0  0  0  0  0  0  0  0  0  0
    3.0000    0.0000    0.0000 C   0  0  0  0  0  0  0  0  0  0  0  0
    3.7500   -1.2990    0.0000 N   0  0  0  0  0  0  0  0  0  0  0  0
    5.2500   -1.2990    0.0000 O   0  0  0  0  0  0  0  0  0  0  0  0
    1.5000    0.0000    0.0000 C   0  0  0  0  0  0  0  0  0  0  0  0
    0.7500   -1.2990    0.0000 C   0  0  0  0  0  0  0  0  0  0  0  0
   -0.7500   -1.2990    0.0000 C   0  0  0  0  0  0  0  0  0  0  0  0
   -1.5000    0.0000    0.0000 C   0  0  0  0  0  0  0  0  0  0  0  0
   -3.0000    0.0000    0.0000 C   0  0  0  0  0  0  0  0  0  0  0  0
   -3.7500    1.2990    0.0000 N   0  0  0  0  0  0  0  0  0  0  0  0
   -5.2418    1.4558    0.0000 C   0  0  0  0  0  0  0  0  0  0  0  0
   -6.2455    0.3411    0.0000 O   0  0  0  0  0  0  0  0  0  0  0  0
   -5.5537    2.9231    0.0000 C   0  0  0  0  0  0  0  0  0  0  0  0
   -6.9240    3.5332    0.0000 C   0  0  0  0  0  0  0  0  0  0  0  0
   -7.0808    5.0249    0.0000 C   0  0  0  0  0  0  0  0  0  0  0  0
   -5.8672    5.9066    0.0000 C   0  0  0  0  0  0  0  0  0  0  0  0
   -6.0240    7.3984    0.0000 C   0  0  0  0  0  0  0  0  0  0  0  0
   -7.3943    8.0085    0.0000 C   0  0  0  0  0  0  0  0  0  0  0  0
   -8.6079    7.1268    0.0000 C   0  0  0  0  0  0  0  0  0  0  0  0
   -8.4511    5.6350    0.0000 C   0  0  0  0  0  0  0  0  0  0  0  0
   -4.2546    3.6731    0.0000 N   0  0  0  0  0  0  0  0  0  0  0  0
   -4.0978    5.1648    0.0000 C   0  0  0  0  0  0  0  0  0  0  0  0
   -2.7275    5.7749    0.0000 C   0  0  0  0  0  0  0  0  0  0  0  0
   -1.5140    4.8933    0.0000 C   0  0  0  0  0  0  0  0  0  0  0  0
   -0.1437    5.5034    0.0000 C   0  0  0  0  0  0  0  0  0  0  0  0
    0.0131    6.9951    0.0000 C   0  0  0  0  0  0  0  0  0  0  0  0
   -1.2004    7.8768    0.0000 C   0  0  0  0  0  0  0  0  0  0  0  0
   -2.5707    7.2667    0.0000 N   0  0  0  0  0  0  0  0  0  0  0  0
   -3.1399    2.6694    0.0000 C   0  0  0  0  0  0  0  0  0  0  0  0
   -1.6727    2.9812    0.0000 O   0  0  0  0  0  0  0  0  0  0  0  0
   -0.7500    1.2990    0.0000 C   0  0  0  0  0  0  0  0  0  0  0  0
    0.7500    1.2990    0.0000 C   0  0  0  0  0  0  0  0  0  0  0  0
  1  2  2  0
  2  3  1  0
  3  4  1  0
  2  5  1  0
  5  6  2  0
  6  7  1  0
  7  8  2  0
  8  9  1  0
  9 10  1  0
 10 11  1  0
 11 12  2  0
 11 13  1  0
 13 14  1  0
 14 15  1  0
 15 16  2  0
 16 17  1  0
 17 18  2  0
 18 19  1  0
 19 20  2  0
 13 21  1  0
 21 22  1  0
 22 23  1  0
 23 24  2  0
 24 25  1  0
 25 26  2  0
 26 27  1  0
 27 28  2  0
 21 29  1  0
 29 30  2  0
  8 31  1  0
 31 32  2  0
 32  5  1  0
 29 10  1  0
 20 15  1  0
 28 23  1  0
M  END
>  <molecule_chembl_id>  (195) 
CHEMBL4858289

>  <canonical_smiles>  (195) 
O=C(NO)c1ccc(CN2C(=O)C(Cc3ccccc3)N(Cc3ccccn3)C2=O)cc1

>  <pchembl_value_mean>  (195) 
5.29

>  <document_chembl_id>  (195) 
CHEMBL4842326

$$$$

     RDKit          2D

 30 33  0  0  0  0  0  0  0  0999 V2000
    0.7500   -9.0933    0.0000 C   0  0  0  0  0  0  0  0  0  0  0  0
    1.5000   -7.7942    0.0000 O   0  0  0  0  0  0  0  0  0  0  0  0
    0.7500   -6.4952    0.0000 C   0  0  0  0  0  0  0  0  0  0  0  0
   -0.7500   -6.4952    0.0000 C   0  0  0  0  0  0  0  0  0  0  0  0
   -1.5000   -5.1962    0.0000 C   0  0  0  0  0  0  0  0  0  0  0  0
   -0.7500   -3.8971    0.0000 C   0  0  0  0  0  0  0  0  0  0  0  0
    0.7500   -3.8971    0.0000 C   0  0  0  0  0  0  0  0  0  0  0  0
    1.5000   -2.5981    0.0000 C   0  0  0  0  0  0  0  0  0  0  0  0
    3.0000   -2.5981    0.0000 O   0  0  0  0  0  0  0  0  0  0  0  0
    0.7500   -1.2990    0.0000 C   0  0  0  0  0  0  0  0  0  0  0  0
    1.5000    0.0000    0.0000 C   0  0  0  0  0  0  0  0  0  0  0  0
    0.7500    1.2990    0.0000 C   0  0  0  0  0  0  0  0  0  0  0  0
   -0.7500    1.2990    0.0000 C   0  0  0  0  0  0  0  0  0  0  0  0
   -1.5000    0.0000    0.0000 C   0  0  0  0  0  0  0  0  0  0  0  0
   -2.9672    0.3119    0.0000 C   0  0  0  0  0  0  0  0  0  0  0  0
   -3.1240    1.8037    0.0000 C   0  0  0  0  0  0  0  0  0  0  0  0
   -1.7537    2.4138    0.0000 N   0  0  0  0  0  0  0  0  0  0  0  0
   -1.4418    3.8810    0.0000 C   0  0  0  0  0  0  0  0  0  0  0  0
   -2.5565    4.8847    0.0000 C   0  0  0  0  0  0  0  0  0  0  0  0
   -2.2447    6.3519    0.0000 C   0  0  0  0  0  0  0  0  0  0  0  0
   -3.3594    7.3556    0.0000 C   0  0  0  0  0  0  0  0  0  0  0  0
   -4.7860    6.8921    0.0000 C   0  0  0  0  0  0  0  0  0  0  0  0
   -5.9007    7.8958    0.0000 C   0  0  0  0  0  0  0  0  0  0  0  0
   -7.3273    7.4322    0.0000 O   0  0  0  0  0  0  0  0  0  0  0  0
   -5.5888    9.3630    0.0000 N   0  0  0  0  0  0  0  0  0  0  0  0
   -6.7035   10.3667    0.0000 O   0  0  0  0  0  0  0  0  0  0  0  0
   -5.0978    5.4248    0.0000 C   0  0  0  0  0  0  0  0  0  0  0  0
   -3.9831    4.4211    0.0000 C   0  0  0  0  0  0  0  0  0  0  0  0
   -0.7500   -1.2990    0.0000 C   0  0  0  0  0  0  0  0  0  0  0  0
    1.5000   -5.1962    0.0000 C   0  0  0  0  0  0  0  0  0  0  0  0
  1  2  1  0
  2  3  1  0
  3  4  2  0
  4  5  1  0
  5  6  2  0
  6  7  1  0
  7  8  1  0
  8  9  2  0
  8 10  1  0
 10 11  2  0
 11 12  1  0
 12 13  2  0
 13 14  1  0
 14 15  1  0
 15 16  2  0
 16 17  1  0
 17 18  1  0
 18 19  1  0
 19 20  2  0
 20 21  1  0
 21 22  2  0
 22 23  1  0
 23 24  2  0
 23 25  1  0
 25 26  1  0
 22 27  1  0
 27 28  2  0
 14 29  2  0
  7 30  2  0
 30  3  1  0
 29 10  1  0
 17 13  1  0
 28 19  1  0
M  END
>  <molecule_chembl_id>  (196) 
CHEMBL4210907

>  <canonical_smiles>  (196) 
COc1cccc(C(=O)c2ccc3c(ccn3Cc3ccc(C(=O)NO)cc3)c2)c1

>  <pchembl_value_mean>  (196) 
5.29

>  <document_chembl_id>  (196) 
CHEMBL4196108

$$$$

     RDKit          2D

 32 34  0  0  0  0  0  0  0  0999 V2000
    3.7500    1.2990    0.0000 O   0  0  0  0  0  0  0  0  0  0  0  0
    3.0000    0.0000    0.0000 C   0  0  0  0  0  0  0  0  0  0  0  0
    3.7500   -1.2990    0.0000 N   0  0  0  0  0  0  0  0  0  0  0  0
    5.2500   -1.2990    0.0000 O   0  0  0  0  0  0  0  0  0  0  0  0
    1.5000    0.0000    0.0000 C   0  0  0  0  0  0  0  0  0  0  0  0
    0.7500   -1.2990    0.0000 C   0  0  0  0  0  0  0  0  0  0  0  0
   -0.7500   -1.2990    0.0000 C   0  0  0  0  0  0  0  0  0  0  0  0
   -1.5000    0.0000    0.0000 C   0  0  0  0  0  0  0  0  0  0  0  0
   -3.0000    0.0000    0.0000 C   0  0  0  0  0  0  0  0  0  0  0  0
   -3.7500    1.2990    0.0000 N   0  0  0  0  0  0  0  0  0  0  0  0
   -5.2500    1.2990    0.0000 C   0  0  0  0  0  0  0  0  0  0  0  0
   -6.0000    2.5981    0.0000 C   0  0  0  0  0  0  0  0  0  0  0  0
   -5.2500    3.8971    0.0000 C   0  0  0  0  0  0  0  0  0  0  0  0
   -6.0000    5.1962    0.0000 C   0  0  0  0  0  0  0  0  0  0  0  0
   -7.5000    5.1962    0.0000 C   0  0  0  0  0  0  0  0  0  0  0  0
   -8.2500    3.8971    0.0000 N   0  0  0  0  0  0  0  0  0  0  0  0
   -7.5000    2.5981    0.0000 C   0  0  0  0  0  0  0  0  0  0  0  0
   -3.0000    2.5981    0.0000 S   0  0  0  0  0  0  0  0  0  0  0  0
   -1.7010    1.8481    0.0000 O   0  0  0  0  0  0  0  0  0  0  0  0
   -4.2990    3.3481    0.0000 O   0  0  0  0  0  0  0  0  0  0  0  0
   -2.2500    3.8971    0.0000 C   0  0  0  0  0  0  0  0  0  0  0  0
   -0.7500    3.8971    0.0000 C   0  0  0  0  0  0  0  0  0  0  0  0
    0.0000    5.1962    0.0000 C   0  0  0  0  0  0  0  0  0  0  0  0
    1.5000    5.1962    0.0000 F   0  0  0  0  0  0  0  0  0  0  0  0
   -0.7500    6.4952    0.0000 C   0  0  0  0  0  0  0  0  0  0  0  0
    0.0000    7.7942    0.0000 F   0  0  0  0  0  0  0  0  0  0  0  0
   -2.2500    6.4952    0.0000 C   0  0  0  0  0  0  0  0  0  0  0  0
   -3.0000    7.7942    0.0000 F   0  0  0  0  0  0  0  0  0  0  0  0
   -3.0000    5.1962    0.0000 C   0  0  0  0  0  0  0  0  0  0  0  0
   -4.5000    5.1962    0.0000 F   0  0  0  0  0  0  0  0  0  0  0  0
   -0.7500    1.2990    0.0000 C   0  0  0  0  0  0  0  0  0  0  0  0
    0.7500    1.2990    0.0000 C   0  0  0  0  0  0  0  0  0  0  0  0
  1  2  2  0
  2  3  1  0
  3  4  1  0
  2  5  1  0
  5  6  2  0
  6  7  1  0
  7  8  2  0
  8  9  1  0
  9 10  1  0
 10 11  1  0
 11 12  1  0
 12 13  2  0
 13 14  1  0
 14 15  2  0
 15 16  1  0
 16 17  2  0
 10 18  1  0
 18 19  2  0
 18 20  2  0
 18 21  1  0
 21 22  2  0
 22 23  1  0
 23 24  1  0
 23 25  2  0
 25 26  1  0
 25 27  1  0
 27 28  1  0
 27 29  2  0
 29 30  1  0
  8 31  1  0
 31 32  2  0
 32  5  1  0
 17 12  1  0
 29 21  1  0
M  END
>  <molecule_chembl_id>  (197) 
CHEMBL5075135

>  <canonical_smiles>  (197) 
O=C(NO)c1ccc(CN(Cc2cccnc2)S(=O)(=O)c2cc(F)c(F)c(F)c2F)cc1

>  <pchembl_value_mean>  (197) 
5.3

>  <document_chembl_id>  (197) 
CHEMBL5042469

$$$$

     RDKit          2D

 25 28  0  0  0  0  0  0  0  0999 V2000
    7.5000   -7.7942    0.0000 O   0  0  0  0  0  0  0  0  0  0  0  0
    6.0000   -7.7942    0.0000 C   0  0  0  0  0  0  0  0  0  0  0  0
    5.2500   -9.0933    0.0000 N   0  0  0  0  0  0  0  0  0  0  0  0
    6.0000  -10.3923    0.0000 O   0  0  0  0  0  0  0  0  0  0  0  0
    5.2500   -6.4952    0.0000 C   0  0  0  0  0  0  0  0  0  0  0  0
    3.7500   -6.4952    0.0000 C   0  0  0  0  0  0  0  0  0  0  0  0
    3.0000   -5.1962    0.0000 C   0  0  0  0  0  0  0  0  0  0  0  0
    3.7500   -3.8971    0.0000 C   0  0  0  0  0  0  0  0  0  0  0  0
    3.0000   -2.5981    0.0000 C   0  0  0  0  0  0  0  0  0  0  0  0
    1.5000   -2.5981    0.0000 N   0  0  0  0  0  0  0  0  0  0  0  0
    0.7500   -1.2990    0.0000 C   0  0  0  0  0  0  0  0  0  0  0  0
    1.5000    0.0000    0.0000 C   0  0  0  0  0  0  0  0  0  0  0  0
    0.7500    1.2990    0.0000 C   0  0  0  0  0  0  0  0  0  0  0  0
   -0.7500    1.2990    0.0000 C   0  0  0  0  0  0  0  0  0  0  0  0
   -1.5000    0.0000    0.0000 C   0  0  0  0  0  0  0  0  0  0  0  0
   -0.7500   -1.2990    0.0000 C   0  0  0  0  0  0  0  0  0  0  0  0
   -1.5000   -2.5981    0.0000 S   0  0  0  0  0  0  0  0  0  0  0  0
   -0.7500   -3.8971    0.0000 C   0  0  0  0  0  0  0  0  0  0  0  0
   -1.5000   -5.1962    0.0000 C   0  0  0  0  0  0  0  0  0  0  0  0
   -0.7500   -6.4952    0.0000 C   0  0  0  0  0  0  0  0  0  0  0  0
    0.7500   -6.4952    0.0000 C   0  0  0  0  0  0  0  0  0  0  0  0
    1.5000   -5.1962    0.0000 C   0  0  0  0  0  0  0  0  0  0  0  0
    0.7500   -3.8971    0.0000 C   0  0  0  0  0  0  0  0  0  0  0  0
    5.2500   -3.8971    0.0000 C   0  0  0  0  0  0  0  0  0  0  0  0
    6.0000   -5.1962    0.0000 C   0  0  0  0  0  0  0  0  0  0  0  0
  1  2  2  0
  2  3  1  0
  3  4  1  0
  2  5  1  0
  5  6  2  0
  6  7  1  0
  7  8  2  0
  8  9  1  0
  9 10  1  0
 10 11  1  0
 11 12  2  0
 12 13  1  0
 13 14  2  0
 14 15  1  0
 15 16  2  0
 16 17  1  0
 17 18  1  0
 18 19  2  0
 19 20  1  0
 20 21  2  0
 21 22  1  0
 22 23  2  0
  8 24  1  0
 24 25  2  0
 25  5  1  0
 23 10  1  0
 16 11  1  0
 23 18  1  0
M  END
>  <molecule_chembl_id>  (198) 
CHEMBL4438566

>  <canonical_smiles>  (198) 
O=C(NO)c1ccc(CN2c3ccccc3Sc3ccccc32)cc1

>  <pchembl_value_mean>  (198) 
5.3

>  <document_chembl_id>  (198) 
CHEMBL4819073

$$$$

     RDKit          2D

 36 39  0  0  0  0  0  0  0  0999 V2000
    3.7500   -1.2990    0.0000 C   0  0  0  0  0  0  0  0  0  0  0  0
    3.0000    0.0000    0.0000 O   0  0  0  0  0  0  0  0  0  0  0  0
    1.5000    0.0000    0.0000 C   0  0  0  0  0  0  0  0  0  0  0  0
    0.7500   -1.2990    0.0000 C   0  0  0  0  0  0  0  0  0  0  0  0
   -0.7500   -1.2990    0.0000 C   0  0  0  0  0  0  0  0  0  0  0  0
   -1.5000    0.0000    0.0000 C   0  0  0  0  0  0  0  0  0  0  0  0
   -3.0000    0.0000    0.0000 S   0  0  0  0  0  0  0  0  0  0  0  0
   -3.0000    1.5000    0.0000 O   0  0  0  0  0  0  0  0  0  0  0  0
   -3.0000   -1.5000    0.0000 O   0  0  0  0  0  0  0  0  0  0  0  0
   -4.5000    0.0000    0.0000 N   0  0  0  0  0  0  0  0  0  0  0  0
   -5.2500   -1.2990    0.0000 C   0  0  0  0  0  0  0  0  0  0  0  0
   -6.7500   -1.2990    0.0000 C   0  0  0  0  0  0  0  0  0  0  0  0
   -7.5000   -2.5981    0.0000 C   0  0  0  0  0  0  0  0  0  0  0  0
   -6.7500   -3.8971    0.0000 C   0  0  0  0  0  0  0  0  0  0  0  0
   -5.2500   -3.8971    0.0000 C   0  0  0  0  0  0  0  0  0  0  0  0
   -4.5000   -2.5981    0.0000 C   0  0  0  0  0  0  0  0  0  0  0  0
   -3.0000   -2.5981    0.0000 O   0  0  0  0  0  0  0  0  0  0  0  0
   -2.2500   -3.8971    0.0000 C   0  0  0  0  0  0  0  0  0  0  0  0
   -0.7500   -3.8971    0.0000 C   0  0  0  0  0  0  0  0  0  0  0  0
   -0.0000   -5.1962    0.0000 C   0  0  0  0  0  0  0  0  0  0  0  0
    1.5000   -5.1962    0.0000 C   0  0  0  0  0  0  0  0  0  0  0  0
    2.2500   -3.8971    0.0000 C   0  0  0  0  0  0  0  0  0  0  0  0
    3.7500   -3.8971    0.0000 C   0  0  0  0  0  0  0  0  0  0  0  0
    4.5000   -2.5981    0.0000 O   0  0  0  0  0  0  0  0  0  0  0  0
    4.5000   -5.1962    0.0000 N   0  0  0  0  0  0  0  0  0  0  0  0
    6.0000   -5.1962    0.0000 C   0  0  0  0  0  0  0  0  0  0  0  0
    6.7500   -6.4952    0.0000 C   0  0  0  0  0  0  0  0  0  0  0  0
    8.2500   -6.4952    0.0000 C   0  0  0  0  0  0  0  0  0  0  0  0
    9.0000   -5.1962    0.0000 C   0  0  0  0  0  0  0  0  0  0  0  0
    8.2500   -3.8971    0.0000 C   0  0  0  0  0  0  0  0  0  0  0  0
    6.7500   -3.8971    0.0000 C   0  0  0  0  0  0  0  0  0  0  0  0
    6.0000   -2.5981    0.0000 N   0  0  0  0  0  0  0  0  0  0  0  0
    1.5000   -2.5981    0.0000 C   0  0  0  0  0  0  0  0  0  0  0  0
   -0.0000   -2.5981    0.0000 C   0  0  0  0  0  0  0  0  0  0  0  0
   -0.7500    1.2990    0.0000 C   0  0  0  0  0  0  0  0  0  0  0  0
    0.7500    1.2990    0.0000 C   0  0  0  0  0  0  0  0  0  0  0  0
  1  2  1  0
  2  3  1  0
  3  4  2  0
  4  5  1  0
  5  6  2  0
  6  7  1  0
  7  8  2  0
  7  9  2  0
  7 10  1  0
 10 11  1  0
 11 12  2  0
 12 13  1  0
 13 14  2  0
 14 15  1  0
 15 16  2  0
 16 17  1  0
 17 18  1  0
 18 19  1  0
 19 20  2  0
 20 21  1  0
 21 22  2  0
 22 23  1  0
 23 24  2  0
 23 25  1  0
 25 26  1  0
 26 27  2  0
 27 28  1  0
 28 29  2  0
 29 30  1  0
 30 31  2  0
 31 32  1  0
 22 33  1  0
 33 34  2  0
  6 35  1  0
 35 36  2  0
 36  3  1  0
 16 11  1  0
 34 19  1  0
 31 26  1  0
M  END
>  <molecule_chembl_id>  (199) 
CHEMBL4777009

>  <canonical_smiles>  (199) 
COc1ccc(S(=O)(=O)Nc2ccccc2OCc2ccc(C(=O)Nc3ccccc3N)cc2)cc1

>  <pchembl_value_mean>  (199) 
5.3

>  <document_chembl_id>  (199) 
CHEMBL4680226

$$$$

     RDKit          2D

 30 33  0  0  0  0  0  0  0  0999 V2000
    1.5342   -9.4474    0.0000 O   0  0  0  0  0  0  0  0  0  0  0  0
    0.3207   -8.5658    0.0000 C   0  0  0  0  0  0  0  0  0  0  0  0
    0.4775   -7.0740    0.0000 C   0  0  0  0  0  0  0  0  0  0  0  0
    1.8478   -6.4639    0.0000 C   0  0  0  0  0  0  0  0  0  0  0  0
    2.0046   -4.9721    0.0000 C   0  0  0  0  0  0  0  0  0  0  0  0
    0.8899   -3.9684    0.0000 C   0  0  0  0  0  0  0  0  0  0  0  0
    1.5000   -2.5981    0.0000 N   0  0  0  0  0  0  0  0  0  0  0  0
    0.7500   -1.2990    0.0000 C   0  0  0  0  0  0  0  0  0  0  0  0
    1.5000    0.0000    0.0000 C   0  0  0  0  0  0  0  0  0  0  0  0
    0.7500    1.2990    0.0000 C   0  0  0  0  0  0  0  0  0  0  0  0
   -0.7500    1.2990    0.0000 C   0  0  0  0  0  0  0  0  0  0  0  0
   -1.5000    0.0000    0.0000 C   0  0  0  0  0  0  0  0  0  0  0  0
   -0.7500   -1.2990    0.0000 C   0  0  0  0  0  0  0  0  0  0  0  0
    2.9918   -2.7549    0.0000 N   0  0  0  0  0  0  0  0  0  0  0  0
    3.3037   -4.2221    0.0000 C   0  0  0  0  0  0  0  0  0  0  0  0
    4.6740   -4.8322    0.0000 C   0  0  0  0  0  0  0  0  0  0  0  0
    4.8308   -6.3240    0.0000 C   0  0  0  0  0  0  0  0  0  0  0  0
    6.2011   -6.9341    0.0000 C   0  0  0  0  0  0  0  0  0  0  0  0
    7.4146   -6.0524    0.0000 C   0  0  0  0  0  0  0  0  0  0  0  0
    8.7849   -6.6625    0.0000 Br  0  0  0  0  0  0  0  0  0  0  0  0
    7.2578   -4.5606    0.0000 C   0  0  0  0  0  0  0  0  0  0  0  0
    5.8875   -3.9505    0.0000 C   0  0  0  0  0  0  0  0  0  0  0  0
   -1.0496   -9.1759    0.0000 N   0  0  0  0  0  0  0  0  0  0  0  0
   -1.2064  -10.6676    0.0000 C   0  0  0  0  0  0  0  0  0  0  0  0
   -2.5767  -11.2778    0.0000 C   0  0  0  0  0  0  0  0  0  0  0  0
   -2.7335  -12.7695    0.0000 C   0  0  0  0  0  0  0  0  0  0  0  0
   -1.5200  -13.6512    0.0000 C   0  0  0  0  0  0  0  0  0  0  0  0
   -1.6768  -15.1430    0.0000 Cl  0  0  0  0  0  0  0  0  0  0  0  0
   -0.1497  -13.0411    0.0000 C   0  0  0  0  0  0  0  0  0  0  0  0
    0.0071  -11.5493    0.0000 C   0  0  0  0  0  0  0  0  0  0  0  0
  1  2  2  0
  2  3  1  0
  3  4  2  3
  4  5  1  0
  5  6  2  0
  6  7  1  0
  7  8  1  0
  8  9  2  0
  9 10  1  0
 10 11  2  0
 11 12  1  0
 12 13  2  0
  7 14  1  0
 14 15  2  0
 15 16  1  0
 16 17  2  0
 17 18  1  0
 18 19  2  0
 19 20  1  0
 19 21  1  0
 21 22  2  0
  2 23  1  0
 23 24  1  0
 24 25  2  0
 25 26  1  0
 26 27  2  0
 27 28  1  0
 27 29  1  0
 29 30  2  0
 15  5  1  0
 22 16  1  0
 30 24  1  0
 13  8  1  0
M  END
>  <molecule_chembl_id>  (200) 
CHEMBL2047614

>  <canonical_smiles>  (200) 
O=C(C=Cc1cn(-c2ccccc2)nc1-c1ccc(Br)cc1)Nc1ccc(Cl)cc1

>  <pchembl_value_mean>  (200) 
5.3

>  <document_chembl_id>  (200) 
CHEMBL2046430

$$$$

     RDKit          2D

 38 40  0  0  0  0  0  0  0  0999 V2000
    3.0000    0.0000    0.0000 C   0  0  0  0  0  0  0  0  0  0  0  0
    1.5000    0.0000    0.0000 C   0  0  0  0  0  0  0  0  0  0  0  0
    0.7500   -1.2990    0.0000 C   0  0  0  0  0  0  0  0  0  0  0  0
   -0.7500   -1.2990    0.0000 C   0  0  0  0  0  0  0  0  0  0  0  0
   -1.5000    0.0000    0.0000 C   0  0  0  0  0  0  0  0  0  0  0  0
   -3.0000    0.0000    0.0000 C   0  0  0  0  0  0  0  0  0  0  0  0
   -3.7500    1.2990    0.0000 N   0  0  0  0  0  0  0  0  0  0  0  0
   -5.2500    1.2990    0.0000 C   0  0  0  0  0  0  0  0  0  0  0  0
   -6.0000    0.0000    0.0000 O   0  0  0  0  0  0  0  0  0  0  0  0
   -6.0000    2.5981    0.0000 C   0  0  0  0  0  0  0  0  0  0  0  0
   -7.5000    2.5981    0.0000 N   0  0  0  0  0  0  0  0  0  0  0  0
   -8.2500    3.8971    0.0000 C   0  0  0  0  0  0  0  0  0  0  0  0
   -9.7500    3.8971    0.0000 C   0  0  0  0  0  0  0  0  0  0  0  0
  -10.5000    5.1962    0.0000 C   0  0  0  0  0  0  0  0  0  0  0  0
  -12.0000    5.1962    0.0000 C   0  0  0  0  0  0  0  0  0  0  0  0
  -12.7500    6.4952    0.0000 C   0  0  0  0  0  0  0  0  0  0  0  0
  -14.2500    6.4952    0.0000 C   0  0  0  0  0  0  0  0  0  0  0  0
  -15.0000    5.1962    0.0000 O   0  0  0  0  0  0  0  0  0  0  0  0
  -15.0000    7.7942    0.0000 N   0  0  0  0  0  0  0  0  0  0  0  0
  -16.5000    7.7942    0.0000 C   0  0  0  0  0  0  0  0  0  0  0  0
  -17.2500    9.0933    0.0000 C   0  0  0  0  0  0  0  0  0  0  0  0
  -18.7500    9.0933    0.0000 C   0  0  0  0  0  0  0  0  0  0  0  0
  -19.5000    7.7942    0.0000 C   0  0  0  0  0  0  0  0  0  0  0  0
  -18.7500    6.4952    0.0000 C   0  0  0  0  0  0  0  0  0  0  0  0
  -17.2500    6.4952    0.0000 C   0  0  0  0  0  0  0  0  0  0  0  0
  -16.5000    5.1962    0.0000 N   0  0  0  0  0  0  0  0  0  0  0  0
   -8.2500    1.2990    0.0000 C   0  0  0  0  0  0  0  0  0  0  0  0
   -7.5000    0.0000    0.0000 O   0  0  0  0  0  0  0  0  0  0  0  0
   -9.7500    1.2990    0.0000 C   0  0  0  0  0  0  0  0  0  0  0  0
  -10.5000    2.5981    0.0000 C   0  0  0  0  0  0  0  0  0  0  0  0
  -12.0000    2.5981    0.0000 C   0  0  0  0  0  0  0  0  0  0  0  0
  -12.7500    3.8971    0.0000 C   0  0  0  0  0  0  0  0  0  0  0  0
  -12.7500    1.2990    0.0000 C   0  0  0  0  0  0  0  0  0  0  0  0
  -12.0000    0.0000    0.0000 C   0  0  0  0  0  0  0  0  0  0  0  0
  -12.7500   -1.2990    0.0000 C   0  0  0  0  0  0  0  0  0  0  0  0
  -10.5000    0.0000    0.0000 C   0  0  0  0  0  0  0  0  0  0  0  0
   -0.7500    1.2990    0.0000 C   0  0  0  0  0  0  0  0  0  0  0  0
    0.7500    1.2990    0.0000 C   0  0  0  0  0  0  0  0  0  0  0  0
  1  2  1  0
  2  3  2  0
  3  4  1  0
  4  5  2  0
  5  6  1  0
  6  7  1  0
  7  8  1  0
  8  9  2  0
  8 10  1  0
 10 11  1  0
 11 12  1  0
 12 13  1  0
 13 14  1  0
 14 15  1  0
 15 16  1  0
 16 17  1  0
 17 18  2  0
 17 19  1  0
 19 20  1  0
 20 21  2  0
 21 22  1  0
 22 23  2  0
 23 24  1  0
 24 25  2  0
 25 26  1  0
 11 27  1  0
 27 28  2  0
 27 29  1  0
 29 30  2  0
 30 31  1  0
 31 32  1  0
 31 33  2  0
 33 34  1  0
 34 35  1  0
 34 36  2  0
  5 37  1  0
 37 38  2  0
 38  2  1  0
 25 20  1  0
 36 29  1  0
M  END
>  <molecule_chembl_id>  (201) 
CHEMBL4450805

>  <canonical_smiles>  (201) 
Cc1ccc(CNC(=O)CN(CCCCCC(=O)Nc2ccccc2N)C(=O)c2cc(C)cc(C)c2)cc1

>  <pchembl_value_mean>  (201) 
5.3

>  <document_chembl_id>  (201) 
CHEMBL4334526

$$$$

     RDKit          2D

 28 29  0  0  0  0  0  0  0  0999 V2000
    3.0000  -12.9904    0.0000 O   0  0  0  0  0  0  0  0  0  0  0  0
    1.5000  -12.9904    0.0000 C   0  0  0  0  0  0  0  0  0  0  0  0
    0.7500  -11.6913    0.0000 C   0  0  0  0  0  0  0  0  0  0  0  0
    1.5000  -10.3923    0.0000 C   0  0  0  0  0  0  0  0  0  0  0  0
    0.7500   -9.0933    0.0000 C   0  0  0  0  0  0  0  0  0  0  0  0
    1.5000   -7.7942    0.0000 C   0  0  0  0  0  0  0  0  0  0  0  0
    0.7500   -6.4952    0.0000 C   0  0  0  0  0  0  0  0  0  0  0  0
    1.5000   -5.1962    0.0000 C   0  0  0  0  0  0  0  0  0  0  0  0
    0.7500   -3.8971    0.0000 N   0  0  0  0  0  0  0  0  0  0  0  0
    1.5000   -2.5981    0.0000 C   0  0  0  0  0  0  0  0  0  0  0  0
    3.0000   -2.5981    0.0000 O   0  0  0  0  0  0  0  0  0  0  0  0
    0.7500   -1.2990    0.0000 C   0  0  0  0  0  0  0  0  0  0  0  0
    1.5000    0.0000    0.0000 C   0  0  0  0  0  0  0  0  0  0  0  0
    0.7500    1.2990    0.0000 C   0  0  0  0  0  0  0  0  0  0  0  0
   -0.7500    1.2990    0.0000 C   0  0  0  0  0  0  0  0  0  0  0  0
   -1.5000    0.0000    0.0000 C   0  0  0  0  0  0  0  0  0  0  0  0
   -3.0000    0.0000    0.0000 O   0  0  0  0  0  0  0  0  0  0  0  0
   -0.7500   -1.2990    0.0000 N   0  0  0  0  0  0  0  0  0  0  0  0
    3.0000   -5.1962    0.0000 C   0  0  0  0  0  0  0  0  0  0  0  0
    3.7500   -3.8971    0.0000 O   0  0  0  0  0  0  0  0  0  0  0  0
    3.7500   -6.4952    0.0000 N   0  0  0  0  0  0  0  0  0  0  0  0
    5.2500   -6.4952    0.0000 C   0  0  0  0  0  0  0  0  0  0  0  0
    6.1317   -5.2817    0.0000 C   0  0  0  0  0  0  0  0  0  0  0  0
    7.5583   -5.7452    0.0000 C   0  0  0  0  0  0  0  0  0  0  0  0
    7.5583   -7.2452    0.0000 C   0  0  0  0  0  0  0  0  0  0  0  0
    6.1317   -7.7087    0.0000 C   0  0  0  0  0  0  0  0  0  0  0  0
    0.7500  -14.2894    0.0000 N   0  0  0  0  0  0  0  0  0  0  0  0
    1.5000  -15.5885    0.0000 O   0  0  0  0  0  0  0  0  0  0  0  0
  1  2  2  0
  2  3  1  0
  3  4  1  0
  4  5  1  0
  5  6  1  0
  6  7  1  0
  7  8  1  0
  8  9  1  0
  9 10  1  0
 10 11  2  0
 10 12  1  0
 12 13  1  0
 13 14  1  0
 14 15  1  0
 15 16  1  0
 16 17  2  0
 16 18  1  0
  8 19  1  0
 19 20  2  0
 19 21  1  0
 21 22  1  0
 22 23  1  0
 23 24  1  0
 24 25  1  0
 25 26  1  0
  2 27  1  0
 27 28  1  0
 18 12  1  0
 26 22  1  0
M  END
>  <molecule_chembl_id>  (202) 
CHEMBL3098697

>  <canonical_smiles>  (202) 
O=C(CCCCCC(NC(=O)C1CCCC(=O)N1)C(=O)NC1CCCC1)NO

>  <pchembl_value_mean>  (202) 
5.3

>  <document_chembl_id>  (202) 
CHEMBL3098008

$$$$

     RDKit          2D

 44 48  0  0  0  0  0  0  0  0999 V2000
    7.4466    3.7867    0.0000 C   0  0  0  0  0  0  0  0  0  0  0  0
    6.1476    4.5367    0.0000 O   0  0  0  0  0  0  0  0  0  0  0  0
    4.8486    3.7867    0.0000 C   0  0  0  0  0  0  0  0  0  0  0  0
    3.5495    4.5367    0.0000 C   0  0  0  0  0  0  0  0  0  0  0  0
    2.2505    3.7867    0.0000 C   0  0  0  0  0  0  0  0  0  0  0  0
    2.2505    2.2867    0.0000 C   0  0  0  0  0  0  0  0  0  0  0  0
    3.5495    1.5367    0.0000 C   0  0  0  0  0  0  0  0  0  0  0  0
    3.5495    0.0367    0.0000 O   0  0  0  0  0  0  0  0  0  0  0  0
    4.8486   -0.7133    0.0000 C   0  0  0  0  0  0  0  0  0  0  0  0
    4.8486    2.2867    0.0000 C   0  0  0  0  0  0  0  0  0  0  0  0
    6.1476    1.5367    0.0000 O   0  0  0  0  0  0  0  0  0  0  0  0
    6.1476    0.0367    0.0000 C   0  0  0  0  0  0  0  0  0  0  0  0
    1.0777    1.3515    0.0000 C   0  0  0  0  0  0  0  0  0  0  0  0
    1.7286    0.0000    0.0000 C   0  0  0  0  0  0  0  0  0  0  0  0
    1.0777   -1.3515    0.0000 C   0  0  0  0  0  0  0  0  0  0  0  0
   -0.3846   -1.6852    0.0000 C   0  0  0  0  0  0  0  0  0  0  0  0
   -0.7184   -3.1476    0.0000 O   0  0  0  0  0  0  0  0  0  0  0  0
   -2.1518   -3.5898    0.0000 C   0  0  0  0  0  0  0  0  0  0  0  0
   -1.5574   -0.7500    0.0000 C   0  0  0  0  0  0  0  0  0  0  0  0
   -2.9088   -1.4008    0.0000 O   0  0  0  0  0  0  0  0  0  0  0  0
   -1.5574    0.7500    0.0000 C   0  0  0  0  0  0  0  0  0  0  0  0
   -0.3846    1.6852    0.0000 C   0  0  0  0  0  0  0  0  0  0  0  0
   -1.0355    3.0367    0.0000 C   0  0  0  0  0  0  0  0  0  0  0  0
   -2.5355    3.0367    0.0000 N   0  0  0  0  0  0  0  0  0  0  0  0
   -3.2855    4.3357    0.0000 C   0  0  0  0  0  0  0  0  0  0  0  0
   -2.5355    5.6348    0.0000 O   0  0  0  0  0  0  0  0  0  0  0  0
   -4.7855    4.3357    0.0000 C   0  0  0  0  0  0  0  0  0  0  0  0
   -5.5355    5.6348    0.0000 C   0  0  0  0  0  0  0  0  0  0  0  0
   -7.0355    5.6348    0.0000 C   0  0  0  0  0  0  0  0  0  0  0  0
   -7.7855    4.3357    0.0000 C   0  0  0  0  0  0  0  0  0  0  0  0
   -7.0355    3.0367    0.0000 C   0  0  0  0  0  0  0  0  0  0  0  0
   -7.7855    1.7376    0.0000 C   0  0  0  0  0  0  0  0  0  0  0  0
   -7.0355    0.4386    0.0000 O   0  0  0  0  0  0  0  0  0  0  0  0
   -9.2855    1.7376    0.0000 N   0  0  0  0  0  0  0  0  0  0  0  0
  -10.0355    0.4386    0.0000 C   0  0  0  0  0  0  0  0  0  0  0  0
  -11.5355    0.4386    0.0000 C   0  0  0  0  0  0  0  0  0  0  0  0
  -12.2855   -0.8604    0.0000 C   0  0  0  0  0  0  0  0  0  0  0  0
  -11.5355   -2.1595    0.0000 C   0  0  0  0  0  0  0  0  0  0  0  0
  -10.0355   -2.1595    0.0000 C   0  0  0  0  0  0  0  0  0  0  0  0
   -9.2855   -0.8604    0.0000 C   0  0  0  0  0  0  0  0  0  0  0  0
   -7.7855   -0.8604    0.0000 N   0  0  0  0  0  0  0  0  0  0  0  0
   -5.5355    3.0367    0.0000 C   0  0  0  0  0  0  0  0  0  0  0  0
   -0.3846    4.3881    0.0000 C   0  0  0  0  0  0  0  0  0  0  0  0
    1.0777    4.7219    0.0000 C   0  0  0  0  0  0  0  0  0  0  0  0
  1  2  1  0
  2  3  1  0
  3  4  2  0
  4  5  1  0
  5  6  2  0
  6  7  1  0
  7  8  1  0
  8  9  1  0
  7 10  2  0
 10 11  1  0
 11 12  1  0
  6 13  1  0
 13 14  2  0
 14 15  1  0
 15 16  2  0
 16 17  1  0
 17 18  1  0
 16 19  1  0
 19 20  2  0
 19 21  1  0
 21 22  2  0
 22 23  1  0
 23 24  1  0
 24 25  1  0
 25 26  2  0
 25 27  1  0
 27 28  2  0
 28 29  1  0
 29 30  2  0
 30 31  1  0
 31 32  1  0
 32 33  2  0
 32 34  1  0
 34 35  1  0
 35 36  2  0
 36 37  1  0
 37 38  2  0
 38 39  1  0
 39 40  2  0
 40 41  1  0
 31 42  2  0
 23 43  1  0
 43 44  1  0
 10  3  1  0
 22 13  1  0
 42 27  1  0
 44  5  1  0
 40 35  1  0
M  END
>  <molecule_chembl_id>  (203) 
CHEMBL3417211

>  <canonical_smiles>  (203) 
COc1cc2c(c(OC)c1OC)-c1ccc(OC)c(=O)cc1C(NC(=O)c1cccc(C(=O)Nc3ccccc3N)c1)CC2

>  <pchembl_value_mean>  (203) 
5.31

>  <document_chembl_id>  (203) 
CHEMBL3414494

$$$$

     RDKit          2D

 29 32  0  0  0  0  0  0  0  0999 V2000
    3.0000    0.0000    0.0000 N   0  0  0  0  0  0  0  0  0  0  0  0
    1.5000    0.0000    0.0000 C   0  0  0  0  0  0  0  0  0  0  0  0
    0.7500   -1.2990    0.0000 C   0  0  0  0  0  0  0  0  0  0  0  0
   -0.7500   -1.2990    0.0000 C   0  0  0  0  0  0  0  0  0  0  0  0
   -1.5000   -2.5981    0.0000 F   0  0  0  0  0  0  0  0  0  0  0  0
   -1.5000    0.0000    0.0000 C   0  0  0  0  0  0  0  0  0  0  0  0
   -0.7500    1.2990    0.0000 C   0  0  0  0  0  0  0  0  0  0  0  0
    0.7500    1.2990    0.0000 C   0  0  0  0  0  0  0  0  0  0  0  0
    1.5000    2.5981    0.0000 N   0  0  0  0  0  0  0  0  0  0  0  0
    0.7500    3.8971    0.0000 C   0  0  0  0  0  0  0  0  0  0  0  0
   -0.7500    3.8971    0.0000 O   0  0  0  0  0  0  0  0  0  0  0  0
    1.5000    5.1962    0.0000 C   0  0  0  0  0  0  0  0  0  0  0  0
    3.0000    5.1962    0.0000 C   0  0  0  0  0  0  0  0  0  0  0  0
    3.7500    6.4952    0.0000 C   0  0  0  0  0  0  0  0  0  0  0  0
    3.0000    7.7942    0.0000 C   0  0  0  0  0  0  0  0  0  0  0  0
    3.7500    9.0933    0.0000 N   0  0  0  0  0  0  0  0  0  0  0  0
    5.2500    9.0933    0.0000 C   0  0  0  0  0  0  0  0  0  0  0  0
    6.0000    7.7942    0.0000 O   0  0  0  0  0  0  0  0  0  0  0  0
    6.0000   10.3923    0.0000 C   0  0  0  0  0  0  0  0  0  0  0  0
    6.0000   11.8923    0.0000 C   0  0  0  0  0  0  0  0  0  0  0  0
    7.2990   11.1423    0.0000 C   0  0  0  0  0  0  0  0  0  0  0  0
    8.7990   11.1423    0.0000 C   0  0  0  0  0  0  0  0  0  0  0  0
    9.5490    9.8433    0.0000 C   0  0  0  0  0  0  0  0  0  0  0  0
   11.0490    9.8433    0.0000 C   0  0  0  0  0  0  0  0  0  0  0  0
   11.7990   11.1423    0.0000 C   0  0  0  0  0  0  0  0  0  0  0  0
   11.0490   12.4413    0.0000 C   0  0  0  0  0  0  0  0  0  0  0  0
    9.5490   12.4413    0.0000 C   0  0  0  0  0  0  0  0  0  0  0  0
    1.5000    7.7942    0.0000 C   0  0  0  0  0  0  0  0  0  0  0  0
    0.7500    6.4952    0.0000 N   0  0  0  0  0  0  0  0  0  0  0  0
  1  2  1  0
  2  3  2  0
  3  4  1  0
  4  5  1  0
  4  6  2  0
  6  7  1  0
  7  8  2  0
  8  9  1  0
  9 10  1  0
 10 11  2  0
 10 12  1  0
 12 13  2  0
 13 14  1  0
 14 15  2  0
 15 16  1  0
 16 17  1  0
 17 18  2  0
 17 19  1  0
 19 20  1  0
 20 21  1  0
 21 22  1  0
 22 23  2  0
 23 24  1  0
 24 25  2  0
 25 26  1  0
 26 27  2  0
 15 28  1  0
 28 29  2  0
  8  2  1  0
 29 12  1  0
 21 19  1  0
 27 22  1  0
M  END
>  <molecule_chembl_id>  (204) 
CHEMBL4173566

>  <canonical_smiles>  (204) 
Nc1cc(F)ccc1NC(=O)c1ccc(NC(=O)C2CC2c2ccccc2)cn1

>  <pchembl_value_mean>  (204) 
5.31

>  <document_chembl_id>  (204) 
CHEMBL4130443

$$$$

     RDKit          2D

 35 36  0  0  0  0  0  0  0  0999 V2000
   -3.0000    2.5981    0.0000 C   0  0  0  0  0  0  0  0  0  0  0  0
   -1.5000    2.5981    0.0000 C   0  0  0  0  0  0  0  0  0  0  0  0
   -0.7500    3.8971    0.0000 C   0  0  0  0  0  0  0  0  0  0  0  0
   -0.7500    1.2990    0.0000 C   0  0  0  0  0  0  0  0  0  0  0  0
   -1.5000    0.0000    0.0000 C   0  0  0  0  0  0  0  0  0  0  0  0
   -0.7500   -1.2990    0.0000 C   0  0  0  0  0  0  0  0  0  0  0  0
   -1.5000   -2.5981    0.0000 C   0  0  0  0  0  0  0  0  0  0  0  0
   -0.7500   -3.8971    0.0000 O   0  0  0  0  0  0  0  0  0  0  0  0
   -3.0000   -2.5981    0.0000 N   0  0  0  0  0  0  0  0  0  0  0  0
   -3.7500   -3.8971    0.0000 C   0  0  0  0  0  0  0  0  0  0  0  0
   -3.7500   -1.2990    0.0000 C   0  0  0  0  0  0  0  0  0  0  0  0
   -3.0000    0.0000    0.0000 C   0  0  0  0  0  0  0  0  0  0  0  0
   -3.7500    1.2990    0.0000 C   0  0  0  0  0  0  0  0  0  0  0  0
   -5.2500    1.2990    0.0000 C   0  0  0  0  0  0  0  0  0  0  0  0
   -6.0000    2.5981    0.0000 N   0  0  0  0  0  0  0  0  0  0  0  0
   -5.2500    3.8971    0.0000 C   0  0  0  0  0  0  0  0  0  0  0  0
   -3.7500    3.8971    0.0000 O   0  0  0  0  0  0  0  0  0  0  0  0
   -6.0000    5.1962    0.0000 C   0  0  0  0  0  0  0  0  0  0  0  0
   -5.2500    6.4952    0.0000 C   0  0  0  0  0  0  0  0  0  0  0  0
   -6.0000    7.7942    0.0000 C   0  0  0  0  0  0  0  0  0  0  0  0
   -5.2500    9.0933    0.0000 C   0  0  0  0  0  0  0  0  0  0  0  0
   -6.0000   10.3923    0.0000 C   0  0  0  0  0  0  0  0  0  0  0  0
   -5.2500   11.6913    0.0000 C   0  0  0  0  0  0  0  0  0  0  0  0
   -6.0000   12.9904    0.0000 C   0  0  0  0  0  0  0  0  0  0  0  0
   -5.2500   14.2894    0.0000 C   0  0  0  0  0  0  0  0  0  0  0  0
   -3.7500   14.2894    0.0000 O   0  0  0  0  0  0  0  0  0  0  0  0
   -6.0000   15.5885    0.0000 N   0  0  0  0  0  0  0  0  0  0  0  0
   -5.2500   16.8875    0.0000 O   0  0  0  0  0  0  0  0  0  0  0  0
   -6.0000    0.0000    0.0000 C   0  0  0  0  0  0  0  0  0  0  0  0
   -5.2500   -1.2990    0.0000 C   0  0  0  0  0  0  0  0  0  0  0  0
    0.7500   -1.2990    0.0000 C   0  0  0  0  0  0  0  0  0  0  0  0
    1.5000   -2.5981    0.0000 O   0  0  0  0  0  0  0  0  0  0  0  0
    1.5000   -0.0000    0.0000 C   0  0  0  0  0  0  0  0  0  0  0  0
    0.7500    1.2990    0.0000 C   0  0  0  0  0  0  0  0  0  0  0  0
    1.5000    2.5981    0.0000 O   0  0  0  0  0  0  0  0  0  0  0  0
  1  2  1  0
  2  3  1  0
  2  4  1  0
  4  5  2  0
  5  6  1  0
  6  7  1  0
  7  8  2  0
  7  9  1  0
  9 10  1  0
  9 11  1  0
 11 12  2  0
 12 13  1  0
 13 14  2  0
 14 15  1  0
 15 16  1  0
 16 17  2  0
 16 18  1  0
 18 19  1  0
 19 20  1  0
 20 21  1  0
 21 22  1  0
 22 23  1  0
 23 24  1  0
 24 25  1  0
 25 26  2  0
 25 27  1  0
 27 28  1  0
 14 29  1  0
 29 30  2  0
  6 31  2  0
 31 32  1  0
 31 33  1  0
 33 34  2  0
 34 35  1  0
 34  4  1  0
 30 11  1  0
M  END
>  <molecule_chembl_id>  (205) 
CHEMBL4448385

>  <canonical_smiles>  (205) 
CC(C)c1cc(C(=O)N(C)c2ccc(NC(=O)CCCCCCCC(=O)NO)cc2)c(O)cc1O

>  <pchembl_value_mean>  (205) 
5.31

>  <document_chembl_id>  (205) 
CHEMBL4373735

$$$$

     RDKit          2D

 30 33  0  0  0  0  0  0  0  0999 V2000
    1.5342   -9.4474    0.0000 O   0  0  0  0  0  0  0  0  0  0  0  0
    0.3207   -8.5658    0.0000 C   0  0  0  0  0  0  0  0  0  0  0  0
    0.4775   -7.0740    0.0000 C   0  0  0  0  0  0  0  0  0  0  0  0
    1.8478   -6.4639    0.0000 C   0  0  0  0  0  0  0  0  0  0  0  0
    2.0046   -4.9721    0.0000 C   0  0  0  0  0  0  0  0  0  0  0  0
    0.8899   -3.9684    0.0000 C   0  0  0  0  0  0  0  0  0  0  0  0
    1.5000   -2.5981    0.0000 N   0  0  0  0  0  0  0  0  0  0  0  0
    0.7500   -1.2990    0.0000 C   0  0  0  0  0  0  0  0  0  0  0  0
    1.5000    0.0000    0.0000 C   0  0  0  0  0  0  0  0  0  0  0  0
    0.7500    1.2990    0.0000 C   0  0  0  0  0  0  0  0  0  0  0  0
   -0.7500    1.2990    0.0000 C   0  0  0  0  0  0  0  0  0  0  0  0
   -1.5000    0.0000    0.0000 C   0  0  0  0  0  0  0  0  0  0  0  0
   -0.7500   -1.2990    0.0000 C   0  0  0  0  0  0  0  0  0  0  0  0
    2.9918   -2.7549    0.0000 N   0  0  0  0  0  0  0  0  0  0  0  0
    3.3037   -4.2221    0.0000 C   0  0  0  0  0  0  0  0  0  0  0  0
    4.6740   -4.8322    0.0000 C   0  0  0  0  0  0  0  0  0  0  0  0
    4.8308   -6.3240    0.0000 C   0  0  0  0  0  0  0  0  0  0  0  0
    6.2011   -6.9341    0.0000 C   0  0  0  0  0  0  0  0  0  0  0  0
    7.4146   -6.0524    0.0000 C   0  0  0  0  0  0  0  0  0  0  0  0
    8.7849   -6.6625    0.0000 Br  0  0  0  0  0  0  0  0  0  0  0  0
    7.2578   -4.5606    0.0000 C   0  0  0  0  0  0  0  0  0  0  0  0
    5.8875   -3.9505    0.0000 C   0  0  0  0  0  0  0  0  0  0  0  0
   -1.0496   -9.1759    0.0000 N   0  0  0  0  0  0  0  0  0  0  0  0
   -1.2064  -10.6676    0.0000 C   0  0  0  0  0  0  0  0  0  0  0  0
   -2.5767  -11.2778    0.0000 C   0  0  0  0  0  0  0  0  0  0  0  0
   -2.7335  -12.7695    0.0000 C   0  0  0  0  0  0  0  0  0  0  0  0
   -1.5200  -13.6512    0.0000 C   0  0  0  0  0  0  0  0  0  0  0  0
   -1.6768  -15.1430    0.0000 Br  0  0  0  0  0  0  0  0  0  0  0  0
   -0.1497  -13.0411    0.0000 C   0  0  0  0  0  0  0  0  0  0  0  0
    0.0071  -11.5493    0.0000 C   0  0  0  0  0  0  0  0  0  0  0  0
  1  2  2  0
  2  3  1  0
  3  4  2  3
  4  5  1  0
  5  6  2  0
  6  7  1  0
  7  8  1  0
  8  9  2  0
  9 10  1  0
 10 11  2  0
 11 12  1  0
 12 13  2  0
  7 14  1  0
 14 15  2  0
 15 16  1  0
 16 17  2  0
 17 18  1  0
 18 19  2  0
 19 20  1  0
 19 21  1  0
 21 22  2  0
  2 23  1  0
 23 24  1  0
 24 25  2  0
 25 26  1  0
 26 27  2  0
 27 28  1  0
 27 29  1  0
 29 30  2  0
 15  5  1  0
 22 16  1  0
 30 24  1  0
 13  8  1  0
M  END
>  <molecule_chembl_id>  (206) 
CHEMBL2047615

>  <canonical_smiles>  (206) 
O=C(C=Cc1cn(-c2ccccc2)nc1-c1ccc(Br)cc1)Nc1ccc(Br)cc1

>  <pchembl_value_mean>  (206) 
5.31

>  <document_chembl_id>  (206) 
CHEMBL2046430

$$$$

     RDKit          2D

 31 34  0  0  0  0  0  0  0  0999 V2000
    3.0000   -5.1962    0.0000 C   0  0  0  0  0  0  0  0  0  0  0  0
    1.5000   -5.1962    0.0000 O   0  0  0  0  0  0  0  0  0  0  0  0
    0.7500   -3.8971    0.0000 C   0  0  0  0  0  0  0  0  0  0  0  0
    1.5000   -2.5981    0.0000 N   0  0  0  0  0  0  0  0  0  0  0  0
    0.7500   -1.2990    0.0000 C   0  0  0  0  0  0  0  0  0  0  0  0
    1.5000    0.0000    0.0000 C   0  0  0  0  0  0  0  0  0  0  0  0
    0.7500    1.2990    0.0000 C   0  0  0  0  0  0  0  0  0  0  0  0
   -0.7500    1.2990    0.0000 C   0  0  0  0  0  0  0  0  0  0  0  0
   -1.5000    0.0000    0.0000 C   0  0  0  0  0  0  0  0  0  0  0  0
   -0.7500   -1.2990    0.0000 C   0  0  0  0  0  0  0  0  0  0  0  0
   -1.5000   -2.5981    0.0000 C   0  0  0  0  0  0  0  0  0  0  0  0
   -0.7500   -3.8971    0.0000 C   0  0  0  0  0  0  0  0  0  0  0  0
   -1.5000   -5.1962    0.0000 C   0  0  0  0  0  0  0  0  0  0  0  0
   -0.8899   -6.5665    0.0000 C   0  0  0  0  0  0  0  0  0  0  0  0
   -2.0046   -7.5702    0.0000 N   0  0  0  0  0  0  0  0  0  0  0  0
   -3.3037   -6.8202    0.0000 C   0  0  0  0  0  0  0  0  0  0  0  0
   -4.6740   -7.4303    0.0000 C   0  0  0  0  0  0  0  0  0  0  0  0
   -4.8308   -8.9221    0.0000 N   0  0  0  0  0  0  0  0  0  0  0  0
   -5.8875   -6.5486    0.0000 C   0  0  0  0  0  0  0  0  0  0  0  0
   -7.2578   -7.1587    0.0000 C   0  0  0  0  0  0  0  0  0  0  0  0
   -8.4713   -6.2770    0.0000 C   0  0  0  0  0  0  0  0  0  0  0  0
   -9.8417   -6.8871    0.0000 C   0  0  0  0  0  0  0  0  0  0  0  0
  -11.0552   -6.0054    0.0000 C   0  0  0  0  0  0  0  0  0  0  0  0
  -12.4255   -6.6156    0.0000 C   0  0  0  0  0  0  0  0  0  0  0  0
  -12.5823   -8.1073    0.0000 O   0  0  0  0  0  0  0  0  0  0  0  0
  -13.6390   -5.7339    0.0000 C   0  0  0  0  0  0  0  0  0  0  0  0
  -15.0656   -6.1974    0.0000 N   0  0  0  0  0  0  0  0  0  0  0  0
  -15.9473   -4.9839    0.0000 C   0  0  0  0  0  0  0  0  0  0  0  0
  -15.0656   -3.7703    0.0000 C   0  0  0  0  0  0  0  0  0  0  0  0
  -13.6390   -4.2339    0.0000 N   0  0  0  0  0  0  0  0  0  0  0  0
   -2.9918   -5.3529    0.0000 N   0  0  0  0  0  0  0  0  0  0  0  0
  1  2  1  0
  2  3  1  0
  3  4  2  0
  4  5  1  0
  5  6  2  0
  6  7  1  0
  7  8  2  0
  8  9  1  0
  9 10  2  0
 10 11  1  0
 11 12  2  0
 12 13  1  0
 13 14  2  0
 14 15  1  0
 15 16  2  0
 16 17  1  0
 17 18  1  0
 17 19  1  0
 19 20  1  0
 20 21  1  0
 21 22  1  0
 22 23  1  0
 23 24  1  0
 24 25  2  0
 24 26  1  0
 26 27  2  0
 27 28  1  0
 28 29  2  0
 29 30  1  0
 16 31  1  0
 12  3  1  0
 31 13  1  0
 10  5  1  0
 30 26  1  0
M  END
>  <molecule_chembl_id>  (207) 
CHEMBL4635130

>  <canonical_smiles>  (207) 
COc1nc2ccccc2cc1-c1cnc(C(N)CCCCCC(=O)c2ncc[nH]2)[nH]1

>  <pchembl_value_mean>  (207) 
5.31

>  <document_chembl_id>  (207) 
CHEMBL4622967

$$$$

     RDKit          2D

 29 31  0  0  0  0  0  0  0  0999 V2000
    0.7500   -6.4952    0.0000 C   0  0  0  0  0  0  0  0  0  0  0  0
    1.5000   -5.1962    0.0000 C   0  0  0  0  0  0  0  0  0  0  0  0
    0.7500   -3.8971    0.0000 C   0  0  0  0  0  0  0  0  0  0  0  0
    1.5000   -2.5981    0.0000 N   0  0  0  0  0  0  0  0  0  0  0  0
    0.7500   -1.2990    0.0000 C   0  0  0  0  0  0  0  0  0  0  0  0
    1.5000    0.0000    0.0000 C   0  0  0  0  0  0  0  0  0  0  0  0
    0.7500    1.2990    0.0000 C   0  0  0  0  0  0  0  0  0  0  0  0
    1.5000    2.5981    0.0000 C   0  0  0  0  0  0  0  0  0  0  0  0
    3.0000    2.5981    0.0000 C   0  0  0  0  0  0  0  0  0  0  0  0
    3.7500    3.8971    0.0000 C   0  0  0  0  0  0  0  0  0  0  0  0
    3.0000    5.1962    0.0000 O   0  0  0  0  0  0  0  0  0  0  0  0
    5.2500    3.8971    0.0000 N   0  0  0  0  0  0  0  0  0  0  0  0
    6.0000    5.1962    0.0000 O   0  0  0  0  0  0  0  0  0  0  0  0
   -0.7500    1.2990    0.0000 C   0  0  0  0  0  0  0  0  0  0  0  0
   -1.5000    0.0000    0.0000 C   0  0  0  0  0  0  0  0  0  0  0  0
   -0.7500   -1.2990    0.0000 C   0  0  0  0  0  0  0  0  0  0  0  0
   -1.5000   -2.5981    0.0000 C   0  0  0  0  0  0  0  0  0  0  0  0
   -3.0000   -2.5981    0.0000 O   0  0  0  0  0  0  0  0  0  0  0  0
   -0.7500   -3.8971    0.0000 N   0  0  0  0  0  0  0  0  0  0  0  0
   -1.5000   -5.1962    0.0000 C   0  0  0  0  0  0  0  0  0  0  0  0
   -3.0000   -5.1962    0.0000 C   0  0  0  0  0  0  0  0  0  0  0  0
   -3.7500   -6.4952    0.0000 C   0  0  0  0  0  0  0  0  0  0  0  0
   -5.2500   -6.4952    0.0000 C   0  0  0  0  0  0  0  0  0  0  0  0
   -6.0000   -7.7942    0.0000 C   0  0  0  0  0  0  0  0  0  0  0  0
   -5.2500   -9.0933    0.0000 C   0  0  0  0  0  0  0  0  0  0  0  0
   -6.0000  -10.3923    0.0000 O   0  0  0  0  0  0  0  0  0  0  0  0
   -7.5000  -10.3923    0.0000 C   0  0  0  0  0  0  0  0  0  0  0  0
   -3.7500   -9.0933    0.0000 C   0  0  0  0  0  0  0  0  0  0  0  0
   -3.0000   -7.7942    0.0000 C   0  0  0  0  0  0  0  0  0  0  0  0
  1  2  1  0
  2  3  1  0
  3  4  2  0
  4  5  1  0
  5  6  2  0
  6  7  1  0
  7  8  1  0
  8  9  2  3
  9 10  1  0
 10 11  2  0
 10 12  1  0
 12 13  1  0
  7 14  2  0
 14 15  1  0
 15 16  2  0
 16 17  1  0
 17 18  2  0
 17 19  1  0
 19 20  1  0
 20 21  1  0
 21 22  1  0
 22 23  2  0
 23 24  1  0
 24 25  2  0
 25 26  1  0
 26 27  1  0
 25 28  1  0
 28 29  2  0
 19  3  1  0
 29 22  1  0
 16  5  1  0
M  END
>  <molecule_chembl_id>  (208) 
CHEMBL2425965

>  <canonical_smiles>  (208) 
CCc1nc2cc(C=CC(=O)NO)ccc2c(=O)n1CCc1ccc(OC)cc1

>  <pchembl_value_mean>  (208) 
5.32

>  <document_chembl_id>  (208) 
CHEMBL2424579

$$$$

     RDKit          2D

 24 26  0  0  0  0  0  0  0  0999 V2000
   -7.5000   -5.1962    0.0000 O   0  0  0  0  0  0  0  0  0  0  0  0
   -6.0000   -5.1962    0.0000 C   0  0  0  0  0  0  0  0  0  0  0  0
   -5.2500   -6.4952    0.0000 N   0  0  0  0  0  0  0  0  0  0  0  0
   -6.0000   -7.7942    0.0000 O   0  0  0  0  0  0  0  0  0  0  0  0
   -5.2500   -3.8971    0.0000 C   0  0  0  0  0  0  0  0  0  0  0  0
   -3.7500   -3.8971    0.0000 C   0  0  0  0  0  0  0  0  0  0  0  0
   -3.0000   -2.5981    0.0000 N   0  0  0  0  0  0  0  0  0  0  0  0
   -3.7500   -1.2990    0.0000 C   0  0  0  0  0  0  0  0  0  0  0  0
   -3.0000    0.0000    0.0000 N   0  0  0  0  0  0  0  0  0  0  0  0
   -3.7500    1.2990    0.0000 C   0  0  0  0  0  0  0  0  0  0  0  0
   -2.3405    1.8121    0.0000 C   0  0  0  0  0  0  0  0  0  0  0  0
   -1.1914    0.8479    0.0000 C   0  0  0  0  0  0  0  0  0  0  0  0
    0.2181    1.3609    0.0000 C   0  0  0  0  0  0  0  0  0  0  0  0
    0.4786    2.8381    0.0000 C   0  0  0  0  0  0  0  0  0  0  0  0
    1.8882    3.3512    0.0000 F   0  0  0  0  0  0  0  0  0  0  0  0
   -0.6704    3.8023    0.0000 C   0  0  0  0  0  0  0  0  0  0  0  0
   -2.0800    3.2893    0.0000 C   0  0  0  0  0  0  0  0  0  0  0  0
   -4.8991    0.3349    0.0000 C   0  0  0  0  0  0  0  0  0  0  0  0
   -6.3086    0.8479    0.0000 C   0  0  0  0  0  0  0  0  0  0  0  0
   -6.5691    2.3251    0.0000 C   0  0  0  0  0  0  0  0  0  0  0  0
   -5.4200    3.2893    0.0000 C   0  0  0  0  0  0  0  0  0  0  0  0
   -4.0105    2.7762    0.0000 C   0  0  0  0  0  0  0  0  0  0  0  0
   -5.2500   -1.2990    0.0000 N   0  0  0  0  0  0  0  0  0  0  0  0
   -6.0000   -2.5981    0.0000 C   0  0  0  0  0  0  0  0  0  0  0  0
  1  2  2  0
  2  3  1  0
  3  4  1  0
  2  5  1  0
  5  6  2  0
  6  7  1  0
  7  8  2  0
  8  9  1  0
  9 10  1  0
 10 11  1  0
 11 12  2  0
 12 13  1  0
 13 14  2  0
 14 15  1  0
 14 16  1  0
 16 17  2  0
 10 18  1  0
 18 19  1  0
 19 20  1  0
 20 21  1  0
 21 22  1  0
  8 23  1  0
 23 24  2  0
 24  5  1  0
 22 10  1  0
 17 11  1  0
M  END
>  <molecule_chembl_id>  (209) 
CHEMBL3655977

>  <canonical_smiles>  (209) 
O=C(NO)c1cnc(NC2(c3ccc(F)cc3)CCCCC2)nc1

>  <pchembl_value_mean>  (209) 
5.32

>  <document_chembl_id>  (209) 
CHEMBL3639071

$$$$

     RDKit          2D

 32 35  0  0  0  0  0  0  0  0999 V2000
   -4.3786   -5.1199    0.0000 C   0  0  0  0  0  0  0  0  0  0  0  0
   -2.9520   -4.6564    0.0000 C   0  0  0  0  0  0  0  0  0  0  0  0
   -2.6401   -3.1891    0.0000 C   0  0  0  0  0  0  0  0  0  0  0  0
   -1.2135   -2.7256    0.0000 C   0  0  0  0  0  0  0  0  0  0  0  0
   -0.0000   -3.6073    0.0000 N   0  0  0  0  0  0  0  0  0  0  0  0
    1.2135   -2.7256    0.0000 N   0  0  0  0  0  0  0  0  0  0  0  0
    2.6401   -3.1891    0.0000 C   0  0  0  0  0  0  0  0  0  0  0  0
    0.7500   -1.2990    0.0000 C   0  0  0  0  0  0  0  0  0  0  0  0
    1.5000    0.0000    0.0000 C   0  0  0  0  0  0  0  0  0  0  0  0
    3.0000    0.0000    0.0000 O   0  0  0  0  0  0  0  0  0  0  0  0
    0.7500    1.2990    0.0000 N   0  0  0  0  0  0  0  0  0  0  0  0
   -0.7500    1.2990    0.0000 C   0  0  0  0  0  0  0  0  0  0  0  0
   -1.5000    2.5981    0.0000 C   0  0  0  0  0  0  0  0  0  0  0  0
   -0.7500    3.8971    0.0000 C   0  0  0  0  0  0  0  0  0  0  0  0
   -1.5000    5.1962    0.0000 C   0  0  0  0  0  0  0  0  0  0  0  0
   -0.7500    6.4952    0.0000 C   0  0  0  0  0  0  0  0  0  0  0  0
   -1.3601    7.8655    0.0000 C   0  0  0  0  0  0  0  0  0  0  0  0
   -0.2454    8.8692    0.0000 C   0  0  0  0  0  0  0  0  0  0  0  0
    1.0537    8.1192    0.0000 C   0  0  0  0  0  0  0  0  0  0  0  0
    2.4240    8.7293    0.0000 C   0  0  0  0  0  0  0  0  0  0  0  0
    2.5808   10.2211    0.0000 O   0  0  0  0  0  0  0  0  0  0  0  0
    3.6375    7.8476    0.0000 N   0  0  0  0  0  0  0  0  0  0  0  0
    5.0078    8.4577    0.0000 O   0  0  0  0  0  0  0  0  0  0  0  0
    0.7418    6.6520    0.0000 S   0  0  0  0  0  0  0  0  0  0  0  0
   -3.0000    5.1962    0.0000 C   0  0  0  0  0  0  0  0  0  0  0  0
   -3.7500    3.8971    0.0000 C   0  0  0  0  0  0  0  0  0  0  0  0
   -3.0000    2.5981    0.0000 C   0  0  0  0  0  0  0  0  0  0  0  0
   -3.7500    1.2990    0.0000 O   0  0  0  0  0  0  0  0  0  0  0  0
   -5.2500    1.2990    0.0000 C   0  0  0  0  0  0  0  0  0  0  0  0
   -6.0000    0.0000    0.0000 C   0  0  0  0  0  0  0  0  0  0  0  0
   -1.5000    0.0000    0.0000 N   0  0  0  0  0  0  0  0  0  0  0  0
   -0.7500   -1.2990    0.0000 C   0  0  0  0  0  0  0  0  0  0  0  0
  1  2  1  0
  2  3  1  0
  3  4  1  0
  4  5  2  0
  5  6  1  0
  6  7  1  0
  6  8  1  0
  8  9  1  0
  9 10  2  0
  9 11  1  0
 11 12  1  0
 12 13  1  0
 13 14  2  0
 14 15  1  0
 15 16  1  0
 16 17  2  0
 17 18  1  0
 18 19  2  0
 19 20  1  0
 20 21  2  0
 20 22  1  0
 22 23  1  0
 19 24  1  0
 15 25  2  0
 25 26  1  0
 26 27  2  0
 27 28  1  0
 28 29  1  0
 29 30  1  0
 12 31  2  0
 31 32  1  0
 32  4  1  0
 32  8  2  0
 27 13  1  0
 24 16  1  0
M  END
>  <molecule_chembl_id>  (210) 
CHEMBL4202521

>  <canonical_smiles>  (210) 
CCCc1nn(C)c2c(=O)[nH]c(-c3cc(-c4ccc(C(=O)NO)s4)ccc3OCC)nc12

>  <pchembl_value_mean>  (210) 
5.32

>  <document_chembl_id>  (210) 
CHEMBL4196089

$$$$

     RDKit          2D

 21 22  0  0  0  0  0  0  0  0999 V2000
    3.0000   -5.1962    0.0000 O   0  0  0  0  0  0  0  0  0  0  0  0
    1.5000   -5.1962    0.0000 C   0  0  0  0  0  0  0  0  0  0  0  0
    0.7500   -3.8971    0.0000 C   0  0  0  0  0  0  0  0  0  0  0  0
    1.5000   -2.5981    0.0000 C   0  0  0  0  0  0  0  0  0  0  0  0
    0.7500   -1.2990    0.0000 C   0  0  0  0  0  0  0  0  0  0  0  0
    1.5000    0.0000    0.0000 C   0  0  0  0  0  0  0  0  0  0  0  0
    0.7500    1.2990    0.0000 C   0  0  0  0  0  0  0  0  0  0  0  0
   -0.7500    1.2990    0.0000 C   0  0  0  0  0  0  0  0  0  0  0  0
   -1.5000    0.0000    0.0000 C   0  0  0  0  0  0  0  0  0  0  0  0
   -3.0000    0.0000    0.0000 C   0  0  0  0  0  0  0  0  0  0  0  0
   -3.7500   -1.2990    0.0000 O   0  0  0  0  0  0  0  0  0  0  0  0
   -3.7500    1.2990    0.0000 N   0  0  0  0  0  0  0  0  0  0  0  0
   -5.2500    1.2990    0.0000 O   0  0  0  0  0  0  0  0  0  0  0  0
   -0.7500   -1.2990    0.0000 C   0  0  0  0  0  0  0  0  0  0  0  0
    0.7500   -6.4952    0.0000 N   0  0  0  0  0  0  0  0  0  0  0  0
    1.5000   -7.7942    0.0000 C   0  0  0  0  0  0  0  0  0  0  0  0
    0.7500   -9.0933    0.0000 C   0  0  0  0  0  0  0  0  0  0  0  0
    1.5000  -10.3923    0.0000 C   0  0  0  0  0  0  0  0  0  0  0  0
    3.0000  -10.3923    0.0000 C   0  0  0  0  0  0  0  0  0  0  0  0
    3.7500   -9.0933    0.0000 C   0  0  0  0  0  0  0  0  0  0  0  0
    3.0000   -7.7942    0.0000 C   0  0  0  0  0  0  0  0  0  0  0  0
  1  2  2  0
  2  3  1  0
  3  4  2  3
  4  5  1  0
  5  6  2  0
  6  7  1  0
  7  8  2  0
  8  9  1  0
  9 10  1  0
 10 11  2  0
 10 12  1  0
 12 13  1  0
  9 14  2  0
  2 15  1  0
 15 16  1  0
 16 17  2  0
 17 18  1  0
 18 19  2  0
 19 20  1  0
 20 21  2  0
 14  5  1  0
 21 16  1  0
M  END
>  <molecule_chembl_id>  (211) 
CHEMBL2381524

>  <canonical_smiles>  (211) 
O=C(C=Cc1cccc(C(=O)NO)c1)Nc1ccccc1

>  <pchembl_value_mean>  (211) 
5.32

>  <document_chembl_id>  (211) 
CHEMBL2380312

$$$$

     RDKit          2D

 34 37  0  0  0  0  0  0  0  0999 V2000
    0.7500   -9.0933    0.0000 C   0  0  0  0  0  0  0  0  0  0  0  0
    1.5000   -7.7942    0.0000 O   0  0  0  0  0  0  0  0  0  0  0  0
    0.7500   -6.4952    0.0000 C   0  0  0  0  0  0  0  0  0  0  0  0
   -0.7500   -6.4952    0.0000 C   0  0  0  0  0  0  0  0  0  0  0  0
   -1.5000   -5.1962    0.0000 C   0  0  0  0  0  0  0  0  0  0  0  0
   -0.7500   -3.8971    0.0000 C   0  0  0  0  0  0  0  0  0  0  0  0
    0.7500   -3.8971    0.0000 C   0  0  0  0  0  0  0  0  0  0  0  0
    1.5000   -2.5981    0.0000 C   0  0  0  0  0  0  0  0  0  0  0  0
    3.0000   -2.5981    0.0000 O   0  0  0  0  0  0  0  0  0  0  0  0
    0.7500   -1.2990    0.0000 C   0  0  0  0  0  0  0  0  0  0  0  0
    1.5000    0.0000    0.0000 C   0  0  0  0  0  0  0  0  0  0  0  0
    0.7500    1.2990    0.0000 C   0  0  0  0  0  0  0  0  0  0  0  0
   -0.7500    1.2990    0.0000 C   0  0  0  0  0  0  0  0  0  0  0  0
   -1.5000    0.0000    0.0000 C   0  0  0  0  0  0  0  0  0  0  0  0
   -2.9672    0.3119    0.0000 C   0  0  0  0  0  0  0  0  0  0  0  0
   -3.1240    1.8037    0.0000 C   0  0  0  0  0  0  0  0  0  0  0  0
   -1.7537    2.4138    0.0000 N   0  0  0  0  0  0  0  0  0  0  0  0
   -1.4418    3.8810    0.0000 S   0  0  0  0  0  0  0  0  0  0  0  0
    0.0254    3.5691    0.0000 O   0  0  0  0  0  0  0  0  0  0  0  0
   -2.9090    4.1928    0.0000 O   0  0  0  0  0  0  0  0  0  0  0  0
   -1.1300    5.3482    0.0000 C   0  0  0  0  0  0  0  0  0  0  0  0
    0.2966    5.8117    0.0000 C   0  0  0  0  0  0  0  0  0  0  0  0
    0.6085    7.2789    0.0000 C   0  0  0  0  0  0  0  0  0  0  0  0
   -0.5062    8.2826    0.0000 C   0  0  0  0  0  0  0  0  0  0  0  0
   -1.9328    7.8191    0.0000 C   0  0  0  0  0  0  0  0  0  0  0  0
   -3.0475    8.8228    0.0000 C   0  0  0  0  0  0  0  0  0  0  0  0
   -2.7357   10.2900    0.0000 C   0  0  0  0  0  0  0  0  0  0  0  0
   -3.8504   11.2937    0.0000 C   0  0  0  0  0  0  0  0  0  0  0  0
   -5.2770   10.8302    0.0000 O   0  0  0  0  0  0  0  0  0  0  0  0
   -3.5385   12.7610    0.0000 N   0  0  0  0  0  0  0  0  0  0  0  0
   -4.6532   13.7646    0.0000 O   0  0  0  0  0  0  0  0  0  0  0  0
   -2.2447    6.3519    0.0000 C   0  0  0  0  0  0  0  0  0  0  0  0
   -0.7500   -1.2990    0.0000 C   0  0  0  0  0  0  0  0  0  0  0  0
    1.5000   -5.1962    0.0000 C   0  0  0  0  0  0  0  0  0  0  0  0
  1  2  1  0
  2  3  1  0
  3  4  2  0
  4  5  1  0
  5  6  2  0
  6  7  1  0
  7  8  1  0
  8  9  2  0
  8 10  1  0
 10 11  2  0
 11 12  1  0
 12 13  2  0
 13 14  1  0
 14 15  1  0
 15 16  2  0
 16 17  1  0
 17 18  1  0
 18 19  2  0
 18 20  2  0
 18 21  1  0
 21 22  2  0
 22 23  1  0
 23 24  2  0
 24 25  1  0
 25 26  1  0
 26 27  2  3
 27 28  1  0
 28 29  2  0
 28 30  1  0
 30 31  1  0
 25 32  2  0
 14 33  2  0
  7 34  2  0
 34  3  1  0
 33 10  1  0
 17 13  1  0
 32 21  1  0
M  END
>  <molecule_chembl_id>  (212) 
CHEMBL4205609

>  <canonical_smiles>  (212) 
COc1cccc(C(=O)c2ccc3c(ccn3S(=O)(=O)c3cccc(C=CC(=O)NO)c3)c2)c1

>  <pchembl_value_mean>  (212) 
5.32

>  <document_chembl_id>  (212) 
CHEMBL4196108

$$$$

     RDKit          2D

 27 29  0  0  0  0  0  0  0  0999 V2000
    0.7500   -6.4952    0.0000 C   0  0  0  0  0  0  0  0  0  0  0  0
    1.5000   -5.1962    0.0000 C   0  0  0  0  0  0  0  0  0  0  0  0
    0.7500   -3.8971    0.0000 C   0  0  0  0  0  0  0  0  0  0  0  0
    1.5000   -2.5981    0.0000 N   0  0  0  0  0  0  0  0  0  0  0  0
    0.7500   -1.2990    0.0000 C   0  0  0  0  0  0  0  0  0  0  0  0
    1.5000    0.0000    0.0000 C   0  0  0  0  0  0  0  0  0  0  0  0
    0.7500    1.2990    0.0000 C   0  0  0  0  0  0  0  0  0  0  0  0
    1.5000    2.5981    0.0000 C   0  0  0  0  0  0  0  0  0  0  0  0
    3.0000    2.5981    0.0000 C   0  0  0  0  0  0  0  0  0  0  0  0
    3.7500    3.8971    0.0000 C   0  0  0  0  0  0  0  0  0  0  0  0
    3.0000    5.1962    0.0000 O   0  0  0  0  0  0  0  0  0  0  0  0
    5.2500    3.8971    0.0000 N   0  0  0  0  0  0  0  0  0  0  0  0
    6.0000    5.1962    0.0000 O   0  0  0  0  0  0  0  0  0  0  0  0
   -0.7500    1.2990    0.0000 C   0  0  0  0  0  0  0  0  0  0  0  0
   -1.5000    0.0000    0.0000 C   0  0  0  0  0  0  0  0  0  0  0  0
   -0.7500   -1.2990    0.0000 C   0  0  0  0  0  0  0  0  0  0  0  0
   -1.5000   -2.5981    0.0000 C   0  0  0  0  0  0  0  0  0  0  0  0
   -3.0000   -2.5981    0.0000 O   0  0  0  0  0  0  0  0  0  0  0  0
   -0.7500   -3.8971    0.0000 N   0  0  0  0  0  0  0  0  0  0  0  0
   -1.5000   -5.1962    0.0000 C   0  0  0  0  0  0  0  0  0  0  0  0
   -3.0000   -5.1962    0.0000 C   0  0  0  0  0  0  0  0  0  0  0  0
   -3.7500   -6.4952    0.0000 C   0  0  0  0  0  0  0  0  0  0  0  0
   -5.2500   -6.4952    0.0000 C   0  0  0  0  0  0  0  0  0  0  0  0
   -6.0000   -7.7942    0.0000 C   0  0  0  0  0  0  0  0  0  0  0  0
   -5.2500   -9.0933    0.0000 C   0  0  0  0  0  0  0  0  0  0  0  0
   -3.7500   -9.0933    0.0000 C   0  0  0  0  0  0  0  0  0  0  0  0
   -3.0000   -7.7942    0.0000 C   0  0  0  0  0  0  0  0  0  0  0  0
  1  2  1  0
  2  3  1  0
  3  4  2  0
  4  5  1  0
  5  6  2  0
  6  7  1  0
  7  8  1  0
  8  9  2  3
  9 10  1  0
 10 11  2  0
 10 12  1  0
 12 13  1  0
  7 14  2  0
 14 15  1  0
 15 16  2  0
 16 17  1  0
 17 18  2  0
 17 19  1  0
 19 20  1  0
 20 21  1  0
 21 22  1  0
 22 23  2  0
 23 24  1  0
 24 25  2  0
 25 26  1  0
 26 27  2  0
 19  3  1  0
 27 22  1  0
 16  5  1  0
M  END
>  <molecule_chembl_id>  (213) 
CHEMBL2425961

>  <canonical_smiles>  (213) 
CCc1nc2cc(C=CC(=O)NO)ccc2c(=O)n1CCc1ccccc1

>  <pchembl_value_mean>  (213) 
5.32

>  <document_chembl_id>  (213) 
CHEMBL2424579

$$$$

     RDKit          2D

 23 25  0  0  0  0  0  0  0  0999 V2000
    3.0000    0.0000    0.0000 C   0  0  0  0  0  0  0  0  0  0  0  0
    1.5000    0.0000    0.0000 C   0  0  0  0  0  0  0  0  0  0  0  0
    0.7500   -1.2990    0.0000 C   0  0  0  0  0  0  0  0  0  0  0  0
   -0.7500   -1.2990    0.0000 C   0  0  0  0  0  0  0  0  0  0  0  0
   -1.5000    0.0000    0.0000 C   0  0  0  0  0  0  0  0  0  0  0  0
   -0.7500    1.2990    0.0000 C   0  0  0  0  0  0  0  0  0  0  0  0
   -1.5000    2.5981    0.0000 C   0  0  0  0  0  0  0  0  0  0  0  0
   -0.7500    3.8971    0.0000 C   0  0  0  0  0  0  0  0  0  0  0  0
   -1.5000    5.1962    0.0000 C   0  0  0  0  0  0  0  0  0  0  0  0
   -3.0000    5.1962    0.0000 C   0  0  0  0  0  0  0  0  0  0  0  0
   -3.7500    6.4952    0.0000 N   0  0  0  0  0  0  0  0  0  0  0  0
   -3.7500    3.8971    0.0000 C   0  0  0  0  0  0  0  0  0  0  0  0
   -5.2500    3.8971    0.0000 N   0  0  0  0  0  0  0  0  0  0  0  0
   -6.0000    2.5981    0.0000 C   0  0  0  0  0  0  0  0  0  0  0  0
   -5.2500    1.2990    0.0000 O   0  0  0  0  0  0  0  0  0  0  0  0
   -7.5000    2.5981    0.0000 C   0  0  0  0  0  0  0  0  0  0  0  0
   -8.2500    3.8971    0.0000 C   0  0  0  0  0  0  0  0  0  0  0  0
   -9.7500    3.8971    0.0000 C   0  0  0  0  0  0  0  0  0  0  0  0
  -10.5000    2.5981    0.0000 C   0  0  0  0  0  0  0  0  0  0  0  0
   -9.7500    1.2990    0.0000 C   0  0  0  0  0  0  0  0  0  0  0  0
   -8.2500    1.2990    0.0000 C   0  0  0  0  0  0  0  0  0  0  0  0
   -3.0000    2.5981    0.0000 C   0  0  0  0  0  0  0  0  0  0  0  0
    0.7500    1.2990    0.0000 C   0  0  0  0  0  0  0  0  0  0  0  0
  1  2  1  0
  2  3  2  0
  3  4  1  0
  4  5  2  0
  5  6  1  0
  6  7  1  0
  7  8  2  0
  8  9  1  0
  9 10  2  0
 10 11  1  0
 10 12  1  0
 12 13  1  0
 13 14  1  0
 14 15  2  0
 14 16  1  0
 16 17  2  0
 17 18  1  0
 18 19  2  0
 19 20  1  0
 20 21  2  0
 12 22  2  0
  6 23  2  0
 23  2  1  0
 22  7  1  0
 21 16  1  0
M  END
>  <molecule_chembl_id>  (214) 
CHEMBL1094108

>  <canonical_smiles>  (214) 
Cc1cccc(-c2ccc(N)c(NC(=O)c3ccccc3)c2)c1

>  <pchembl_value_mean>  (214) 
5.325

>  <document_chembl_id>  (214) 
CHEMBL1158590

$$$$

     RDKit          2D

 30 33  0  0  0  0  0  0  0  0999 V2000
    6.0000   -5.1962    0.0000 C   0  0  0  0  0  0  0  0  0  0  0  0
    5.2500   -3.8971    0.0000 O   0  0  0  0  0  0  0  0  0  0  0  0
    3.7500   -3.8971    0.0000 C   0  0  0  0  0  0  0  0  0  0  0  0
    3.0000   -5.1962    0.0000 C   0  0  0  0  0  0  0  0  0  0  0  0
    1.5000   -5.1962    0.0000 C   0  0  0  0  0  0  0  0  0  0  0  0
    0.7500   -3.8971    0.0000 C   0  0  0  0  0  0  0  0  0  0  0  0
    1.5000   -2.5981    0.0000 C   0  0  0  0  0  0  0  0  0  0  0  0
    0.7500   -1.2990    0.0000 C   0  0  0  0  0  0  0  0  0  0  0  0
    1.5000    0.0000    0.0000 C   0  0  0  0  0  0  0  0  0  0  0  0
    0.7500    1.2990    0.0000 C   0  0  0  0  0  0  0  0  0  0  0  0
   -0.7500    1.2990    0.0000 C   0  0  0  0  0  0  0  0  0  0  0  0
   -1.7537    2.4138    0.0000 C   0  0  0  0  0  0  0  0  0  0  0  0
   -1.4418    3.8810    0.0000 N   0  0  0  0  0  0  0  0  0  0  0  0
   -2.5565    4.8847    0.0000 C   0  0  0  0  0  0  0  0  0  0  0  0
   -3.9831    4.4211    0.0000 O   0  0  0  0  0  0  0  0  0  0  0  0
   -2.2447    6.3519    0.0000 C   0  0  0  0  0  0  0  0  0  0  0  0
   -0.8181    6.8154    0.0000 C   0  0  0  0  0  0  0  0  0  0  0  0
   -0.5062    8.2826    0.0000 C   0  0  0  0  0  0  0  0  0  0  0  0
   -1.6209    9.2863    0.0000 C   0  0  0  0  0  0  0  0  0  0  0  0
   -1.3091   10.7536    0.0000 C   0  0  0  0  0  0  0  0  0  0  0  0
   -2.4238   11.7573    0.0000 O   0  0  0  0  0  0  0  0  0  0  0  0
    0.1175   11.2171    0.0000 N   0  0  0  0  0  0  0  0  0  0  0  0
    0.4294   12.6843    0.0000 O   0  0  0  0  0  0  0  0  0  0  0  0
   -3.0475    8.8228    0.0000 C   0  0  0  0  0  0  0  0  0  0  0  0
   -3.3594    7.3556    0.0000 C   0  0  0  0  0  0  0  0  0  0  0  0
   -3.1240    1.8037    0.0000 N   0  0  0  0  0  0  0  0  0  0  0  0
   -2.9672    0.3119    0.0000 N   0  0  0  0  0  0  0  0  0  0  0  0
   -1.5000    0.0000    0.0000 C   0  0  0  0  0  0  0  0  0  0  0  0
   -0.7500   -1.2990    0.0000 C   0  0  0  0  0  0  0  0  0  0  0  0
    3.0000   -2.5981    0.0000 C   0  0  0  0  0  0  0  0  0  0  0  0
  1  2  1  0
  2  3  1  0
  3  4  2  0
  4  5  1  0
  5  6  2  0
  6  7  1  0
  7  8  1  0
  8  9  2  0
  9 10  1  0
 10 11  2  0
 11 12  1  0
 12 13  1  0
 13 14  1  0
 14 15  2  0
 14 16  1  0
 16 17  1  0
 17 18  1  0
 18 19  1  0
 19 20  1  0
 20 21  2  0
 20 22  1  0
 22 23  1  0
 19 24  1  0
 24 25  1  0
 12 26  2  0
 26 27  1  0
 27 28  1  0
 28 29  2  0
  7 30  2  0
 30  3  1  0
 29  8  1  0
 28 11  1  0
 25 16  1  0
M  END
>  <molecule_chembl_id>  (215) 
CHEMBL4784481

>  <canonical_smiles>  (215) 
COc1cccc(-c2ccc3c(NC(=O)C4CCC(C(=O)NO)CC4)n[nH]c3c2)c1

>  <pchembl_value_mean>  (215) 
5.33

>  <document_chembl_id>  (215) 
CHEMBL4765277

$$$$

     RDKit          2D

 16 17  0  0  0  0  0  0  0  0999 V2000
    3.0000    0.0000    0.0000 N   0  0  0  0  0  0  0  0  0  0  0  0
    1.5000    0.0000    0.0000 C   0  0  0  0  0  0  0  0  0  0  0  0
    0.7500   -1.2990    0.0000 C   0  0  0  0  0  0  0  0  0  0  0  0
   -0.7500   -1.2990    0.0000 C   0  0  0  0  0  0  0  0  0  0  0  0
   -1.5000    0.0000    0.0000 C   0  0  0  0  0  0  0  0  0  0  0  0
   -0.7500    1.2990    0.0000 C   0  0  0  0  0  0  0  0  0  0  0  0
    0.7500    1.2990    0.0000 C   0  0  0  0  0  0  0  0  0  0  0  0
    1.5000    2.5981    0.0000 N   0  0  0  0  0  0  0  0  0  0  0  0
    0.7500    3.8971    0.0000 C   0  0  0  0  0  0  0  0  0  0  0  0
   -0.7500    3.8971    0.0000 O   0  0  0  0  0  0  0  0  0  0  0  0
    1.5000    5.1962    0.0000 C   0  0  0  0  0  0  0  0  0  0  0  0
    3.0000    5.1962    0.0000 C   0  0  0  0  0  0  0  0  0  0  0  0
    3.7500    6.4952    0.0000 C   0  0  0  0  0  0  0  0  0  0  0  0
    3.0000    7.7942    0.0000 C   0  0  0  0  0  0  0  0  0  0  0  0
    1.5000    7.7942    0.0000 C   0  0  0  0  0  0  0  0  0  0  0  0
    0.7500    6.4952    0.0000 C   0  0  0  0  0  0  0  0  0  0  0  0
  1  2  1  0
  2  3  2  0
  3  4  1  0
  4  5  2  0
  5  6  1  0
  6  7  2  0
  7  8  1  0
  8  9  1  0
  9 10  2  0
  9 11  1  0
 11 12  2  0
 12 13  1  0
 13 14  2  0
 14 15  1  0
 15 16  2  0
  7  2  1  0
 16 11  1  0
M  END
>  <molecule_chembl_id>  (216) 
CHEMBL405072

>  <canonical_smiles>  (216) 
Nc1ccccc1NC(=O)c1ccccc1

>  <pchembl_value_mean>  (216) 
5.33

>  <document_chembl_id>  (216) 
CHEMBL1143185

$$$$

     RDKit          2D

 39 42  0  0  0  0  0  0  0  0999 V2000
   -4.3786   -5.1199    0.0000 C   0  0  0  0  0  0  0  0  0  0  0  0
   -2.9520   -4.6564    0.0000 C   0  0  0  0  0  0  0  0  0  0  0  0
   -2.6401   -3.1891    0.0000 C   0  0  0  0  0  0  0  0  0  0  0  0
   -1.2135   -2.7256    0.0000 C   0  0  0  0  0  0  0  0  0  0  0  0
   -0.0000   -3.6073    0.0000 N   0  0  0  0  0  0  0  0  0  0  0  0
    1.2135   -2.7256    0.0000 N   0  0  0  0  0  0  0  0  0  0  0  0
    2.6401   -3.1891    0.0000 C   0  0  0  0  0  0  0  0  0  0  0  0
    0.7500   -1.2990    0.0000 C   0  0  0  0  0  0  0  0  0  0  0  0
    1.5000    0.0000    0.0000 C   0  0  0  0  0  0  0  0  0  0  0  0
    3.0000    0.0000    0.0000 O   0  0  0  0  0  0  0  0  0  0  0  0
    0.7500    1.2990    0.0000 N   0  0  0  0  0  0  0  0  0  0  0  0
   -0.7500    1.2990    0.0000 C   0  0  0  0  0  0  0  0  0  0  0  0
   -1.5000    2.5981    0.0000 C   0  0  0  0  0  0  0  0  0  0  0  0
   -0.7500    3.8971    0.0000 C   0  0  0  0  0  0  0  0  0  0  0  0
   -1.5000    5.1962    0.0000 C   0  0  0  0  0  0  0  0  0  0  0  0
   -0.7500    6.4952    0.0000 S   0  0  0  0  0  0  0  0  0  0  0  0
    0.5490    5.7452    0.0000 O   0  0  0  0  0  0  0  0  0  0  0  0
   -2.0490    7.2452    0.0000 O   0  0  0  0  0  0  0  0  0  0  0  0
    0.0000    7.7942    0.0000 N   0  0  0  0  0  0  0  0  0  0  0  0
    1.5000    7.7942    0.0000 C   0  0  0  0  0  0  0  0  0  0  0  0
    2.2500    9.0933    0.0000 C   0  0  0  0  0  0  0  0  0  0  0  0
    1.5000   10.3923    0.0000 N   0  0  0  0  0  0  0  0  0  0  0  0
    2.2500   11.6913    0.0000 C   0  0  0  0  0  0  0  0  0  0  0  0
    3.7500   11.6913    0.0000 C   0  0  0  0  0  0  0  0  0  0  0  0
    4.5000   12.9904    0.0000 C   0  0  0  0  0  0  0  0  0  0  0  0
    6.0000   12.9904    0.0000 C   0  0  0  0  0  0  0  0  0  0  0  0
    6.7500   11.6913    0.0000 O   0  0  0  0  0  0  0  0  0  0  0  0
    6.7500   14.2894    0.0000 N   0  0  0  0  0  0  0  0  0  0  0  0
    8.2500   14.2894    0.0000 O   0  0  0  0  0  0  0  0  0  0  0  0
   -0.0000   10.3923    0.0000 C   0  0  0  0  0  0  0  0  0  0  0  0
   -0.7500    9.0933    0.0000 C   0  0  0  0  0  0  0  0  0  0  0  0
   -3.0000    5.1962    0.0000 C   0  0  0  0  0  0  0  0  0  0  0  0
   -3.7500    3.8971    0.0000 C   0  0  0  0  0  0  0  0  0  0  0  0
   -3.0000    2.5981    0.0000 C   0  0  0  0  0  0  0  0  0  0  0  0
   -3.7500    1.2990    0.0000 O   0  0  0  0  0  0  0  0  0  0  0  0
   -5.2500    1.2990    0.0000 C   0  0  0  0  0  0  0  0  0  0  0  0
   -6.0000    0.0000    0.0000 C   0  0  0  0  0  0  0  0  0  0  0  0
   -1.5000    0.0000    0.0000 N   0  0  0  0  0  0  0  0  0  0  0  0
   -0.7500   -1.2990    0.0000 C   0  0  0  0  0  0  0  0  0  0  0  0
  1  2  1  0
  2  3  1  0
  3  4  1  0
  4  5  2  0
  5  6  1  0
  6  7  1  0
  6  8  1  0
  8  9  1  0
  9 10  2  0
  9 11  1  0
 11 12  1  0
 12 13  1  0
 13 14  2  0
 14 15  1  0
 15 16  1  0
 16 17  2  0
 16 18  2  0
 16 19  1  0
 19 20  1  0
 20 21  1  0
 21 22  1  0
 22 23  1  0
 23 24  1  0
 24 25  1  0
 25 26  1  0
 26 27  2  0
 26 28  1  0
 28 29  1  0
 22 30  1  0
 30 31  1  0
 15 32  2  0
 32 33  1  0
 33 34  2  0
 34 35  1  0
 35 36  1  0
 36 37  1  0
 12 38  2  0
 38 39  1  0
 39  4  1  0
 39  8  2  0
 34 13  1  0
 31 19  1  0
M  END
>  <molecule_chembl_id>  (217) 
CHEMBL3926754

>  <canonical_smiles>  (217) 
CCCc1nn(C)c2c(=O)[nH]c(-c3cc(S(=O)(=O)N4CCN(CCCC(=O)NO)CC4)ccc3OCC)nc12

>  <pchembl_value_mean>  (217) 
5.33

>  <document_chembl_id>  (217) 
CHEMBL3860059

$$$$

     RDKit          2D

 23 25  0  0  0  0  0  0  0  0999 V2000
    3.0000    0.0000    0.0000 N   0  0  0  0  0  0  0  0  0  0  0  0
    1.5000    0.0000    0.0000 C   0  0  0  0  0  0  0  0  0  0  0  0
    0.7500   -1.2990    0.0000 C   0  0  0  0  0  0  0  0  0  0  0  0
   -0.7500   -1.2990    0.0000 C   0  0  0  0  0  0  0  0  0  0  0  0
   -1.5000    0.0000    0.0000 C   0  0  0  0  0  0  0  0  0  0  0  0
   -3.0000    0.0000    0.0000 C   0  0  0  0  0  0  0  0  0  0  0  0
   -3.7500    1.2990    0.0000 C   0  0  0  0  0  0  0  0  0  0  0  0
   -5.2500    1.2990    0.0000 C   0  0  0  0  0  0  0  0  0  0  0  0
   -6.0000    0.0000    0.0000 C   0  0  0  0  0  0  0  0  0  0  0  0
   -7.5000    0.0000    0.0000 F   0  0  0  0  0  0  0  0  0  0  0  0
   -5.2500   -1.2990    0.0000 C   0  0  0  0  0  0  0  0  0  0  0  0
   -3.7500   -1.2990    0.0000 C   0  0  0  0  0  0  0  0  0  0  0  0
   -0.7500    1.2990    0.0000 C   0  0  0  0  0  0  0  0  0  0  0  0
    0.7500    1.2990    0.0000 C   0  0  0  0  0  0  0  0  0  0  0  0
    1.5000    2.5981    0.0000 N   0  0  0  0  0  0  0  0  0  0  0  0
    0.7500    3.8971    0.0000 C   0  0  0  0  0  0  0  0  0  0  0  0
   -0.7500    3.8971    0.0000 O   0  0  0  0  0  0  0  0  0  0  0  0
    1.5000    5.1962    0.0000 C   0  0  0  0  0  0  0  0  0  0  0  0
    3.0000    5.1962    0.0000 C   0  0  0  0  0  0  0  0  0  0  0  0
    3.7500    6.4952    0.0000 C   0  0  0  0  0  0  0  0  0  0  0  0
    3.0000    7.7942    0.0000 C   0  0  0  0  0  0  0  0  0  0  0  0
    1.5000    7.7942    0.0000 O   0  0  0  0  0  0  0  0  0  0  0  0
    0.7500    6.4952    0.0000 C   0  0  0  0  0  0  0  0  0  0  0  0
  1  2  1  0
  2  3  2  0
  3  4  1  0
  4  5  2  0
  5  6  1  0
  6  7  2  0
  7  8  1  0
  8  9  2  0
  9 10  1  0
  9 11  1  0
 11 12  2  0
  5 13  1  0
 13 14  2  0
 14 15  1  0
 15 16  1  0
 16 17  2  0
 16 18  1  0
 18 19  1  0
 19 20  1  0
 20 21  1  0
 21 22  1  0
 22 23  1  0
 14  2  1  0
 23 18  1  0
 12  6  1  0
M  END
>  <molecule_chembl_id>  (218) 
CHEMBL3827412

>  <canonical_smiles>  (218) 
Nc1ccc(-c2ccc(F)cc2)cc1NC(=O)C1CCCOC1

>  <pchembl_value_mean>  (218) 
5.33

>  <document_chembl_id>  (218) 
CHEMBL3826926

$$$$

     RDKit          2D

 20 22  0  0  0  0  0  0  0  0999 V2000
    3.0000   -7.7942    0.0000 O   0  0  0  0  0  0  0  0  0  0  0  0
    1.5000   -7.7942    0.0000 C   0  0  0  0  0  0  0  0  0  0  0  0
    0.7500   -9.0933    0.0000 N   0  0  0  0  0  0  0  0  0  0  0  0
    1.5000  -10.3923    0.0000 O   0  0  0  0  0  0  0  0  0  0  0  0
    0.7500   -6.4952    0.0000 C   0  0  0  0  0  0  0  0  0  0  0  0
   -0.7500   -6.4952    0.0000 C   0  0  0  0  0  0  0  0  0  0  0  0
   -1.5000   -5.1962    0.0000 C   0  0  0  0  0  0  0  0  0  0  0  0
   -0.7500   -3.8971    0.0000 C   0  0  0  0  0  0  0  0  0  0  0  0
    0.7500   -3.8971    0.0000 C   0  0  0  0  0  0  0  0  0  0  0  0
    1.5000   -5.1962    0.0000 C   0  0  0  0  0  0  0  0  0  0  0  0
    1.5000   -2.5981    0.0000 C   0  0  0  0  0  0  0  0  0  0  0  0
    3.0000   -2.5981    0.0000 O   0  0  0  0  0  0  0  0  0  0  0  0
    0.7500   -1.2990    0.0000 C   0  0  0  0  0  0  0  0  0  0  0  0
    1.5000    0.0000    0.0000 C   0  0  0  0  0  0  0  0  0  0  0  0
    0.7500    1.2990    0.0000 C   0  0  0  0  0  0  0  0  0  0  0  0
   -0.7500    1.2990    0.0000 C   0  0  0  0  0  0  0  0  0  0  0  0
   -1.5000    0.0000    0.0000 C   0  0  0  0  0  0  0  0  0  0  0  0
   -0.7500   -1.2990    0.0000 C   0  0  0  0  0  0  0  0  0  0  0  0
   -1.5000   -2.5981    0.0000 C   0  0  0  0  0  0  0  0  0  0  0  0
   -3.0000   -2.5981    0.0000 O   0  0  0  0  0  0  0  0  0  0  0  0
  1  2  2  0
  2  3  1  0
  3  4  1  0
  2  5  1  0
  5  6  2  0
  6  7  1  0
  7  8  2  0
  8  9  1  0
  9 10  2  0
  9 11  1  0
 11 12  2  0
 11 13  1  0
 13 14  2  0
 14 15  1  0
 15 16  2  0
 16 17  1  0
 17 18  2  0
 18 19  1  0
 19 20  2  0
 10  5  1  0
 18 13  1  0
 19  8  1  0
M  END
>  <molecule_chembl_id>  (219) 
CHEMBL4437432

>  <canonical_smiles>  (219) 
O=C(NO)c1ccc2c(c1)C(=O)c1ccccc1C2=O

>  <pchembl_value_mean>  (219) 
5.34

>  <document_chembl_id>  (219) 
CHEMBL4422624

$$$$

     RDKit          2D

 25 26  0  0  0  0  0  0  0  0999 V2000
    3.7500   -1.2990    0.0000 C   0  0  0  0  0  0  0  0  0  0  0  0
    3.0000    0.0000    0.0000 O   0  0  0  0  0  0  0  0  0  0  0  0
    1.5000    0.0000    0.0000 C   0  0  0  0  0  0  0  0  0  0  0  0
    0.7500   -1.2990    0.0000 C   0  0  0  0  0  0  0  0  0  0  0  0
   -0.7500   -1.2990    0.0000 C   0  0  0  0  0  0  0  0  0  0  0  0
   -1.5000    0.0000    0.0000 C   0  0  0  0  0  0  0  0  0  0  0  0
   -3.0000    0.0000    0.0000 C   0  0  0  0  0  0  0  0  0  0  0  0
   -3.8817   -1.2135    0.0000 N   0  0  0  0  0  0  0  0  0  0  0  0
   -5.3083   -0.7500    0.0000 O   0  0  0  0  0  0  0  0  0  0  0  0
   -5.3083    0.7500    0.0000 C   0  0  0  0  0  0  0  0  0  0  0  0
   -6.5218    1.6317    0.0000 C   0  0  0  0  0  0  0  0  0  0  0  0
   -6.3650    3.1235    0.0000 C   0  0  0  0  0  0  0  0  0  0  0  0
   -7.5785    4.0051    0.0000 C   0  0  0  0  0  0  0  0  0  0  0  0
   -7.4217    5.4969    0.0000 C   0  0  0  0  0  0  0  0  0  0  0  0
   -8.6353    6.3786    0.0000 C   0  0  0  0  0  0  0  0  0  0  0  0
   -8.4785    7.8704    0.0000 C   0  0  0  0  0  0  0  0  0  0  0  0
   -9.6920    8.7521    0.0000 C   0  0  0  0  0  0  0  0  0  0  0  0
  -11.0623    8.1420    0.0000 O   0  0  0  0  0  0  0  0  0  0  0  0
   -9.5352   10.2438    0.0000 C   0  0  0  0  0  0  0  0  0  0  0  0
   -9.3784   11.7356    0.0000 F   0  0  0  0  0  0  0  0  0  0  0  0
  -11.0270   10.4006    0.0000 F   0  0  0  0  0  0  0  0  0  0  0  0
   -8.0434   10.0871    0.0000 F   0  0  0  0  0  0  0  0  0  0  0  0
   -3.8817    1.2135    0.0000 N   0  0  0  0  0  0  0  0  0  0  0  0
   -0.7500    1.2990    0.0000 C   0  0  0  0  0  0  0  0  0  0  0  0
    0.7500    1.2990    0.0000 C   0  0  0  0  0  0  0  0  0  0  0  0
  1  2  1  0
  2  3  1  0
  3  4  2  0
  4  5  1  0
  5  6  2  0
  6  7  1  0
  7  8  2  0
  8  9  1  0
  9 10  1  0
 10 11  1  0
 11 12  1  0
 12 13  1  0
 13 14  1  0
 14 15  1  0
 15 16  1  0
 16 17  1  0
 17 18  2  0
 17 19  1  0
 19 20  1  0
 19 21  1  0
 19 22  1  0
 10 23  2  0
  6 24  1  0
 24 25  2  0
 25  3  1  0
 23  7  1  0
M  END
>  <molecule_chembl_id>  (220) 
CHEMBL3585982

>  <canonical_smiles>  (220) 
COc1ccc(-c2noc(CCCCCCC(=O)C(F)(F)F)n2)cc1

>  <pchembl_value_mean>  (220) 
5.34

>  <document_chembl_id>  (220) 
CHEMBL3585316

$$$$

     RDKit          2D

 24 26  0  0  0  0  0  0  0  0999 V2000
    3.9955   -4.2382    0.0000 C   0  0  0  0  0  0  0  0  0  0  0  0
    2.9918   -5.3529    0.0000 N   0  0  0  0  0  0  0  0  0  0  0  0
    1.5000   -5.1962    0.0000 C   0  0  0  0  0  0  0  0  0  0  0  0
    0.7500   -3.8971    0.0000 S   0  0  0  0  0  0  0  0  0  0  0  0
    1.5000   -2.5981    0.0000 C   0  0  0  0  0  0  0  0  0  0  0  0
    0.7500   -1.2990    0.0000 C   0  0  0  0  0  0  0  0  0  0  0  0
    1.5000    0.0000    0.0000 C   0  0  0  0  0  0  0  0  0  0  0  0
    0.7500    1.2990    0.0000 C   0  0  0  0  0  0  0  0  0  0  0  0
   -0.7500    1.2990    0.0000 C   0  0  0  0  0  0  0  0  0  0  0  0
   -1.5000    2.5981    0.0000 C   0  0  0  0  0  0  0  0  0  0  0  0
   -3.0000    2.5981    0.0000 O   0  0  0  0  0  0  0  0  0  0  0  0
   -0.7500    3.8971    0.0000 N   0  0  0  0  0  0  0  0  0  0  0  0
   -1.5000    5.1962    0.0000 O   0  0  0  0  0  0  0  0  0  0  0  0
   -1.5000    0.0000    0.0000 C   0  0  0  0  0  0  0  0  0  0  0  0
   -0.7500   -1.2990    0.0000 C   0  0  0  0  0  0  0  0  0  0  0  0
    0.8899   -6.5665    0.0000 N   0  0  0  0  0  0  0  0  0  0  0  0
    2.0046   -7.5702    0.0000 N   0  0  0  0  0  0  0  0  0  0  0  0
    3.3037   -6.8202    0.0000 C   0  0  0  0  0  0  0  0  0  0  0  0
    4.6740   -7.4303    0.0000 C   0  0  0  0  0  0  0  0  0  0  0  0
    4.8308   -8.9221    0.0000 C   0  0  0  0  0  0  0  0  0  0  0  0
    6.2011   -9.5322    0.0000 C   0  0  0  0  0  0  0  0  0  0  0  0
    7.4146   -8.6505    0.0000 N   0  0  0  0  0  0  0  0  0  0  0  0
    7.2578   -7.1587    0.0000 C   0  0  0  0  0  0  0  0  0  0  0  0
    5.8875   -6.5486    0.0000 C   0  0  0  0  0  0  0  0  0  0  0  0
  1  2  1  0
  2  3  1  0
  3  4  1  0
  4  5  1  0
  5  6  1  0
  6  7  2  0
  7  8  1  0
  8  9  2  0
  9 10  1  0
 10 11  2  0
 10 12  1  0
 12 13  1  0
  9 14  1  0
 14 15  2  0
  3 16  2  0
 16 17  1  0
 17 18  2  0
 18 19  1  0
 19 20  2  0
 20 21  1  0
 21 22  2  0
 22 23  1  0
 23 24  2  0
 18  2  1  0
 24 19  1  0
 15  6  1  0
M  END
>  <molecule_chembl_id>  (221) 
CHEMBL4853791

>  <canonical_smiles>  (221) 
Cn1c(SCc2ccc(C(=O)NO)cc2)nnc1-c1ccncc1

>  <pchembl_value_mean>  (221) 
5.36

>  <document_chembl_id>  (221) 
CHEMBL4823270

$$$$

     RDKit          2D

 25 27  0  0  0  0  0  0  0  0999 V2000
    3.7500   -1.2990    0.0000 C   0  0  0  0  0  0  0  0  0  0  0  0
    3.0000    0.0000    0.0000 C   0  0  0  0  0  0  0  0  0  0  0  0
    3.7500    1.2990    0.0000 O   0  0  0  0  0  0  0  0  0  0  0  0
    1.5000    0.0000    0.0000 C   0  0  0  0  0  0  0  0  0  0  0  0
    0.7500   -1.2990    0.0000 C   0  0  0  0  0  0  0  0  0  0  0  0
   -0.7500   -1.2990    0.0000 C   0  0  0  0  0  0  0  0  0  0  0  0
   -1.5000    0.0000    0.0000 C   0  0  0  0  0  0  0  0  0  0  0  0
   -3.0000    0.0000    0.0000 C   0  0  0  0  0  0  0  0  0  0  0  0
   -3.7500    1.2990    0.0000 C   0  0  0  0  0  0  0  0  0  0  0  0
   -5.2500    1.2990    0.0000 C   0  0  0  0  0  0  0  0  0  0  0  0
   -6.0000    0.0000    0.0000 C   0  0  0  0  0  0  0  0  0  0  0  0
   -7.5000    0.0000    0.0000 N   0  0  0  0  0  0  0  0  0  0  0  0
   -5.2500   -1.2990    0.0000 C   0  0  0  0  0  0  0  0  0  0  0  0
   -6.0000   -2.5981    0.0000 N   0  0  0  0  0  0  0  0  0  0  0  0
   -5.2500   -3.8971    0.0000 C   0  0  0  0  0  0  0  0  0  0  0  0
   -3.7500   -3.8971    0.0000 O   0  0  0  0  0  0  0  0  0  0  0  0
   -6.0000   -5.1962    0.0000 C   0  0  0  0  0  0  0  0  0  0  0  0
   -7.5000   -5.1962    0.0000 C   0  0  0  0  0  0  0  0  0  0  0  0
   -8.2500   -6.4952    0.0000 C   0  0  0  0  0  0  0  0  0  0  0  0
   -7.5000   -7.7942    0.0000 C   0  0  0  0  0  0  0  0  0  0  0  0
   -6.0000   -7.7942    0.0000 C   0  0  0  0  0  0  0  0  0  0  0  0
   -5.2500   -6.4952    0.0000 C   0  0  0  0  0  0  0  0  0  0  0  0
   -3.7500   -1.2990    0.0000 C   0  0  0  0  0  0  0  0  0  0  0  0
   -0.7500    1.2990    0.0000 C   0  0  0  0  0  0  0  0  0  0  0  0
    0.7500    1.2990    0.0000 C   0  0  0  0  0  0  0  0  0  0  0  0
  1  2  1  0
  2  3  2  0
  2  4  1  0
  4  5  2  0
  5  6  1  0
  6  7  2  0
  7  8  1  0
  8  9  2  0
  9 10  1  0
 10 11  2  0
 11 12  1  0
 11 13  1  0
 13 14  1  0
 14 15  1  0
 15 16  2  0
 15 17  1  0
 17 18  2  0
 18 19  1  0
 19 20  2  0
 20 21  1  0
 21 22  2  0
 13 23  2  0
  7 24  1  0
 24 25  2  0
 25  4  1  0
 23  8  1  0
 22 17  1  0
M  END
>  <molecule_chembl_id>  (222) 
CHEMBL1099078

>  <canonical_smiles>  (222) 
CC(=O)c1ccc(-c2ccc(N)c(NC(=O)c3ccccc3)c2)cc1

>  <pchembl_value_mean>  (222) 
5.36

>  <document_chembl_id>  (222) 
CHEMBL1158590

$$$$

     RDKit          2D

 33 36  0  0  0  0  0  0  0  0999 V2000
   -4.3786   -5.1199    0.0000 C   0  0  0  0  0  0  0  0  0  0  0  0
   -2.9520   -4.6564    0.0000 C   0  0  0  0  0  0  0  0  0  0  0  0
   -2.6401   -3.1891    0.0000 C   0  0  0  0  0  0  0  0  0  0  0  0
   -1.2135   -2.7256    0.0000 C   0  0  0  0  0  0  0  0  0  0  0  0
   -0.0000   -3.6073    0.0000 N   0  0  0  0  0  0  0  0  0  0  0  0
    1.2135   -2.7256    0.0000 C   0  0  0  0  0  0  0  0  0  0  0  0
    2.6401   -3.1891    0.0000 C   0  0  0  0  0  0  0  0  0  0  0  0
    0.7500   -1.2990    0.0000 C   0  0  0  0  0  0  0  0  0  0  0  0
    1.5000    0.0000    0.0000 C   0  0  0  0  0  0  0  0  0  0  0  0
    3.0000    0.0000    0.0000 O   0  0  0  0  0  0  0  0  0  0  0  0
    0.7500    1.2990    0.0000 N   0  0  0  0  0  0  0  0  0  0  0  0
   -0.7500    1.2990    0.0000 C   0  0  0  0  0  0  0  0  0  0  0  0
   -1.5000    2.5981    0.0000 C   0  0  0  0  0  0  0  0  0  0  0  0
   -0.7500    3.8971    0.0000 C   0  0  0  0  0  0  0  0  0  0  0  0
   -1.5000    5.1962    0.0000 C   0  0  0  0  0  0  0  0  0  0  0  0
   -0.7500    6.4952    0.0000 C   0  0  0  0  0  0  0  0  0  0  0  0
    0.7500    6.4952    0.0000 C   0  0  0  0  0  0  0  0  0  0  0  0
    1.6317    7.7087    0.0000 C   0  0  0  0  0  0  0  0  0  0  0  0
    3.0583    7.2452    0.0000 C   0  0  0  0  0  0  0  0  0  0  0  0
    3.0583    5.7452    0.0000 C   0  0  0  0  0  0  0  0  0  0  0  0
    4.2718    4.8635    0.0000 C   0  0  0  0  0  0  0  0  0  0  0  0
    5.6421    5.4736    0.0000 O   0  0  0  0  0  0  0  0  0  0  0  0
    4.1150    3.3717    0.0000 N   0  0  0  0  0  0  0  0  0  0  0  0
    5.3285    2.4901    0.0000 O   0  0  0  0  0  0  0  0  0  0  0  0
    1.6317    5.2817    0.0000 S   0  0  0  0  0  0  0  0  0  0  0  0
   -3.0000    5.1962    0.0000 C   0  0  0  0  0  0  0  0  0  0  0  0
   -3.7500    3.8971    0.0000 C   0  0  0  0  0  0  0  0  0  0  0  0
   -3.0000    2.5981    0.0000 C   0  0  0  0  0  0  0  0  0  0  0  0
   -3.7500    1.2990    0.0000 O   0  0  0  0  0  0  0  0  0  0  0  0
   -5.2500    1.2990    0.0000 C   0  0  0  0  0  0  0  0  0  0  0  0
   -6.0000    0.0000    0.0000 C   0  0  0  0  0  0  0  0  0  0  0  0
   -1.5000    0.0000    0.0000 N   0  0  0  0  0  0  0  0  0  0  0  0
   -0.7500   -1.2990    0.0000 N   0  0  0  0  0  0  0  0  0  0  0  0
  1  2  1  0
  2  3  1  0
  3  4  1  0
  4  5  2  0
  5  6  1  0
  6  7  1  0
  6  8  2  0
  8  9  1  0
  9 10  2  0
  9 11  1  0
 11 12  1  0
 12 13  1  0
 13 14  2  0
 14 15  1  0
 15 16  1  0
 16 17  1  0
 17 18  2  0
 18 19  1  0
 19 20  2  0
 20 21  1  0
 21 22  2  0
 21 23  1  0
 23 24  1  0
 20 25  1  0
 15 26  2  0
 26 27  1  0
 27 28  2  0
 28 29  1  0
 29 30  1  0
 30 31  1  0
 12 32  2  0
 32 33  1  0
 33  4  1  0
 33  8  1  0
 28 13  1  0
 25 17  1  0
M  END
>  <molecule_chembl_id>  (223) 
CHEMBL4214135

>  <canonical_smiles>  (223) 
CCCc1nc(C)c2c(=O)[nH]c(-c3cc(Cc4ccc(C(=O)NO)s4)ccc3OCC)nn12

>  <pchembl_value_mean>  (223) 
5.36

>  <document_chembl_id>  (223) 
CHEMBL4196089

$$$$

     RDKit          2D

 18 18  0  0  0  0  0  0  0  0999 V2000
   12.5260   -3.8971    0.0000 O   0  0  0  0  0  0  0  0  0  0  0  0
   11.7760   -5.1962    0.0000 C   0  0  0  0  0  0  0  0  0  0  0  0
   10.2760   -5.1962    0.0000 C   0  0  0  0  0  0  0  0  0  0  0  0
    9.5260   -3.8971    0.0000 C   0  0  0  0  0  0  0  0  0  0  0  0
    8.0260   -3.8971    0.0000 C   0  0  0  0  0  0  0  0  0  0  0  0
    7.2760   -2.5981    0.0000 C   0  0  0  0  0  0  0  0  0  0  0  0
    5.7760   -2.5981    0.0000 C   0  0  0  0  0  0  0  0  0  0  0  0
    5.0260   -1.2990    0.0000 C   0  0  0  0  0  0  0  0  0  0  0  0
    3.5260   -1.2990    0.0000 C   0  0  0  0  0  0  0  0  0  0  0  0
    2.7760   -2.5981    0.0000 O   0  0  0  0  0  0  0  0  0  0  0  0
    2.7760    0.0000    0.0000 N   0  0  0  0  0  0  0  0  0  0  0  0
    1.2760    0.0000    0.0000 C   0  0  0  0  0  0  0  0  0  0  0  0
    0.3943    1.2135    0.0000 C   0  0  0  0  0  0  0  0  0  0  0  0
   -1.0323    0.7500    0.0000 C   0  0  0  0  0  0  0  0  0  0  0  0
   -1.0323   -0.7500    0.0000 C   0  0  0  0  0  0  0  0  0  0  0  0
    0.3943   -1.2135    0.0000 C   0  0  0  0  0  0  0  0  0  0  0  0
   12.5260   -6.4952    0.0000 N   0  0  0  0  0  0  0  0  0  0  0  0
   14.0260   -6.4952    0.0000 O   0  0  0  0  0  0  0  0  0  0  0  0
  1  2  2  0
  2  3  1  0
  3  4  1  0
  4  5  1  0
  5  6  1  0
  6  7  1  0
  7  8  1  0
  8  9  1  0
  9 10  2  0
  9 11  1  0
 11 12  1  0
 12 13  1  0
 13 14  1  0
 14 15  1  0
 15 16  1  0
  2 17  1  0
 17 18  1  0
 16 12  1  0
M  END
>  <molecule_chembl_id>  (224) 
CHEMBL3098696

>  <canonical_smiles>  (224) 
O=C(CCCCCCC(=O)NC1CCCC1)NO

>  <pchembl_value_mean>  (224) 
5.36

>  <document_chembl_id>  (224) 
CHEMBL3098008

$$$$

     RDKit          2D

 42 45  0  0  0  0  0  0  0  0999 V2000
    4.3978    0.0000    0.0000 O   0  0  0  0  0  0  0  0  0  0  0  0
    2.8978    0.0000    0.0000 C   0  0  0  0  0  0  0  0  0  0  0  0
    2.5095   -1.4489    0.0000 C   0  0  0  0  0  0  0  0  0  0  0  0
    1.4489   -2.5095    0.0000 C   0  0  0  0  0  0  0  0  0  0  0  0
   -0.0000   -2.8978    0.0000 C   0  0  0  0  0  0  0  0  0  0  0  0
   -1.4489   -2.5095    0.0000 C   0  0  0  0  0  0  0  0  0  0  0  0
   -2.5095   -1.4489    0.0000 C   0  0  0  0  0  0  0  0  0  0  0  0
   -2.8978    0.0000    0.0000 C   0  0  0  0  0  0  0  0  0  0  0  0
   -2.5095    1.4489    0.0000 C   0  0  0  0  0  0  0  0  0  0  0  0
   -3.8086    2.1989    0.0000 O   0  0  0  0  0  0  0  0  0  0  0  0
   -1.4489    2.5095    0.0000 N   0  0  0  0  0  0  0  0  0  0  0  0
   -2.1989    3.8086    0.0000 C   0  0  0  0  0  0  0  0  0  0  0  0
   -1.4489    5.1076    0.0000 C   0  0  0  0  0  0  0  0  0  0  0  0
    0.0511    5.1076    0.0000 C   0  0  0  0  0  0  0  0  0  0  0  0
    0.8011    6.4067    0.0000 C   0  0  0  0  0  0  0  0  0  0  0  0
    0.0511    7.7057    0.0000 C   0  0  0  0  0  0  0  0  0  0  0  0
   -1.4489    7.7057    0.0000 C   0  0  0  0  0  0  0  0  0  0  0  0
   -2.1989    9.0047    0.0000 C   0  0  0  0  0  0  0  0  0  0  0  0
   -1.4489   10.3038    0.0000 N   0  0  0  0  0  0  0  0  0  0  0  0
   -2.1989   11.6028    0.0000 N   0  0  0  0  0  0  0  0  0  0  0  0
   -1.4489   12.9019    0.0000 C   0  0  0  0  0  0  0  0  0  0  0  0
    0.0511   12.9019    0.0000 O   0  0  0  0  0  0  0  0  0  0  0  0
   -2.1989   14.2009    0.0000 C   0  0  0  0  0  0  0  0  0  0  0  0
   -1.4489   15.4999    0.0000 C   0  0  0  0  0  0  0  0  0  0  0  0
   -2.1989   16.7990    0.0000 C   0  0  0  0  0  0  0  0  0  0  0  0
   -3.6989   16.7990    0.0000 C   0  0  0  0  0  0  0  0  0  0  0  0
   -4.4489   15.4999    0.0000 C   0  0  0  0  0  0  0  0  0  0  0  0
   -5.9489   15.4999    0.0000 C   0  0  0  0  0  0  0  0  0  0  0  0
   -6.6989   14.2009    0.0000 O   0  0  0  0  0  0  0  0  0  0  0  0
   -6.6989   16.7990    0.0000 N   0  0  0  0  0  0  0  0  0  0  0  0
   -8.1989   16.7990    0.0000 O   0  0  0  0  0  0  0  0  0  0  0  0
   -3.6989   14.2009    0.0000 C   0  0  0  0  0  0  0  0  0  0  0  0
   -2.1989    6.4067    0.0000 C   0  0  0  0  0  0  0  0  0  0  0  0
    0.0000    2.8978    0.0000 C   0  0  0  0  0  0  0  0  0  0  0  0
    1.4489    2.5095    0.0000 C   0  0  0  0  0  0  0  0  0  0  0  0
    2.1989    3.8086    0.0000 C   0  0  0  0  0  0  0  0  0  0  0  0
    3.6989    3.8086    0.0000 C   0  0  0  0  0  0  0  0  0  0  0  0
    4.4489    5.1076    0.0000 C   0  0  0  0  0  0  0  0  0  0  0  0
    3.6989    6.4067    0.0000 C   0  0  0  0  0  0  0  0  0  0  0  0
    2.1989    6.4067    0.0000 C   0  0  0  0  0  0  0  0  0  0  0  0
    1.4489    5.1076    0.0000 C   0  0  0  0  0  0  0  0  0  0  0  0
    2.5095    1.4489    0.0000 O   0  0  0  0  0  0  0  0  0  0  0  0
  1  2  2  0
  2  3  1  0
  3  4  1  0
  4  5  1  0
  5  6  2  0
  6  7  1  0
  7  8  1  0
  8  9  1  0
  9 10  2  0
  9 11  1  0
 11 12  1  0
 12 13  1  0
 13 14  2  0
 14 15  1  0
 15 16  2  0
 16 17  1  0
 17 18  1  0
 18 19  2  3
 19 20  1  0
 20 21  1  0
 21 22  2  0
 21 23  1  0
 23 24  2  0
 24 25  1  0
 25 26  2  0
 26 27  1  0
 27 28  1  0
 28 29  2  0
 28 30  1  0
 30 31  1  0
 27 32  2  0
 17 33  2  0
 11 34  1  0
 34 35  1  0
 35 36  1  0
 36 37  2  0
 37 38  1  0
 38 39  2  0
 39 40  1  0
 40 41  2  0
 35 42  1  0
 42  2  1  0
 33 13  1  0
 41 36  1  0
 32 23  1  0
M  END
>  <molecule_chembl_id>  (225) 
CHEMBL1771486

>  <canonical_smiles>  (225) 
O=C1CCC=CCCC(=O)N(Cc2cccc(C=NNC(=O)c3cccc(C(=O)NO)c3)c2)CC(c2ccccc2)O1

>  <pchembl_value_mean>  (225) 
5.37

>  <document_chembl_id>  (225) 
CHEMBL1770095

$$$$

     RDKit          2D

 48 52  0  0  0  0  0  0  0  0999 V2000
   17.2500  -14.2894    0.0000 N   0  0  0  0  0  0  0  0  0  0  0  0
   16.5000  -15.5885    0.0000 C   0  0  0  0  0  0  0  0  0  0  0  0
   17.2500  -16.8875    0.0000 C   0  0  0  0  0  0  0  0  0  0  0  0
   16.5000  -18.1865    0.0000 C   0  0  0  0  0  0  0  0  0  0  0  0
   17.2500  -19.4856    0.0000 F   0  0  0  0  0  0  0  0  0  0  0  0
   15.0000  -18.1865    0.0000 C   0  0  0  0  0  0  0  0  0  0  0  0
   14.2500  -16.8875    0.0000 C   0  0  0  0  0  0  0  0  0  0  0  0
   15.0000  -15.5885    0.0000 C   0  0  0  0  0  0  0  0  0  0  0  0
   14.2500  -14.2894    0.0000 N   0  0  0  0  0  0  0  0  0  0  0  0
   15.0000  -12.9904    0.0000 C   0  0  0  0  0  0  0  0  0  0  0  0
   16.5000  -12.9904    0.0000 O   0  0  0  0  0  0  0  0  0  0  0  0
   14.2500  -11.6913    0.0000 C   0  0  0  0  0  0  0  0  0  0  0  0
   15.0000  -10.3923    0.0000 C   0  0  0  0  0  0  0  0  0  0  0  0
   14.2500   -9.0933    0.0000 C   0  0  0  0  0  0  0  0  0  0  0  0
   12.7500   -9.0933    0.0000 C   0  0  0  0  0  0  0  0  0  0  0  0
   12.0000   -7.7942    0.0000 N   0  0  0  0  0  0  0  0  0  0  0  0
   10.5000   -7.7942    0.0000 C   0  0  0  0  0  0  0  0  0  0  0  0
    9.7500   -9.0933    0.0000 O   0  0  0  0  0  0  0  0  0  0  0  0
    9.7500   -6.4952    0.0000 C   0  0  0  0  0  0  0  0  0  0  0  0
    8.2500   -6.4952    0.0000 C   0  0  0  0  0  0  0  0  0  0  0  0
    7.5000   -5.1962    0.0000 C   0  0  0  0  0  0  0  0  0  0  0  0
    6.0000   -5.1962    0.0000 C   0  0  0  0  0  0  0  0  0  0  0  0
    5.2500   -3.8971    0.0000 N   0  0  0  0  0  0  0  0  0  0  0  0
    3.7500   -3.8971    0.0000 C   0  0  0  0  0  0  0  0  0  0  0  0
    3.0000   -5.1962    0.0000 O   0  0  0  0  0  0  0  0  0  0  0  0
    3.0000   -2.5981    0.0000 C   0  0  0  0  0  0  0  0  0  0  0  0
    1.5000   -2.5981    0.0000 N   0  0  0  0  0  0  0  0  0  0  0  0
    0.7500   -1.2990    0.0000 C   0  0  0  0  0  0  0  0  0  0  0  0
    1.5000    0.0000    0.0000 C   0  0  0  0  0  0  0  0  0  0  0  0
    0.7500    1.2990    0.0000 C   0  0  0  0  0  0  0  0  0  0  0  0
   -0.7500    1.2990    0.0000 C   0  0  0  0  0  0  0  0  0  0  0  0
   -1.5000    0.0000    0.0000 C   0  0  0  0  0  0  0  0  0  0  0  0
   -0.7500   -1.2990    0.0000 C   0  0  0  0  0  0  0  0  0  0  0  0
   -1.7537   -2.4138    0.0000 C   0  0  0  0  0  0  0  0  0  0  0  0
   -1.4418   -3.8810    0.0000 O   0  0  0  0  0  0  0  0  0  0  0  0
   -3.1240   -1.8037    0.0000 N   0  0  0  0  0  0  0  0  0  0  0  0
   -4.4231   -2.5537    0.0000 C   0  0  0  0  0  0  0  0  0  0  0  0
   -5.7221   -1.8037    0.0000 C   0  0  0  0  0  0  0  0  0  0  0  0
   -7.0211   -2.5537    0.0000 C   0  0  0  0  0  0  0  0  0  0  0  0
   -7.0211   -4.0537    0.0000 C   0  0  0  0  0  0  0  0  0  0  0  0
   -8.3202   -4.8037    0.0000 O   0  0  0  0  0  0  0  0  0  0  0  0
   -5.7221   -4.8037    0.0000 N   0  0  0  0  0  0  0  0  0  0  0  0
   -4.4231   -4.0537    0.0000 C   0  0  0  0  0  0  0  0  0  0  0  0
   -3.1240   -4.8037    0.0000 O   0  0  0  0  0  0  0  0  0  0  0  0
   -2.9672   -0.3119    0.0000 C   0  0  0  0  0  0  0  0  0  0  0  0
   -4.0819    0.6918    0.0000 O   0  0  0  0  0  0  0  0  0  0  0  0
   12.0000  -10.3923    0.0000 C   0  0  0  0  0  0  0  0  0  0  0  0
   12.7500  -11.6913    0.0000 C   0  0  0  0  0  0  0  0  0  0  0  0
  1  2  1  0
  2  3  2  0
  3  4  1  0
  4  5  1  0
  4  6  2  0
  6  7  1  0
  7  8  2  0
  8  9  1  0
  9 10  1  0
 10 11  2  0
 10 12  1  0
 12 13  2  0
 13 14  1  0
 14 15  2  0
 15 16  1  0
 16 17  1  0
 17 18  2  0
 17 19  1  0
 19 20  1  0
 20 21  1  0
 21 22  1  0
 22 23  1  0
 23 24  1  0
 24 25  2  0
 24 26  1  0
 26 27  1  0
 27 28  1  0
 28 29  2  0
 29 30  1  0
 30 31  2  0
 31 32  1  0
 32 33  2  0
 33 34  1  0
 34 35  2  0
 34 36  1  0
 36 37  1  0
 37 38  1  0
 38 39  1  0
 39 40  1  0
 40 41  2  0
 40 42  1  0
 42 43  1  0
 43 44  2  0
 36 45  1  0
 45 46  2  0
 15 47  1  0
 47 48  2  0
  8  2  1  0
 48 12  1  0
 33 28  1  0
 43 37  1  0
 45 32  1  0
M  END
>  <molecule_chembl_id>  (226) 
CHEMBL4751300

>  <canonical_smiles>  (226) 
Nc1cc(F)ccc1NC(=O)c1ccc(NC(=O)CCCCNC(=O)CNc2cccc3c2C(=O)N(C2CCC(=O)NC2=O)C3=O)cc1

>  <pchembl_value_mean>  (226) 
5.38

>  <document_chembl_id>  (226) 
CHEMBL4706593

$$$$

     RDKit          2D

 36 38  0  0  0  0  0  0  0  0999 V2000
    3.0000    0.0000    0.0000 C   0  0  0  0  0  0  0  0  0  0  0  0
    1.5000    0.0000    0.0000 C   0  0  0  0  0  0  0  0  0  0  0  0
    0.7500   -1.2990    0.0000 C   0  0  0  0  0  0  0  0  0  0  0  0
   -0.7500   -1.2990    0.0000 C   0  0  0  0  0  0  0  0  0  0  0  0
   -1.5000    0.0000    0.0000 C   0  0  0  0  0  0  0  0  0  0  0  0
   -3.0000    0.0000    0.0000 C   0  0  0  0  0  0  0  0  0  0  0  0
   -3.8817   -1.2135    0.0000 C   0  0  0  0  0  0  0  0  0  0  0  0
   -5.3083   -0.7500    0.0000 C   0  0  0  0  0  0  0  0  0  0  0  0
   -6.5218   -1.6317    0.0000 C   0  0  0  0  0  0  0  0  0  0  0  0
   -7.7353   -2.5134    0.0000 F   0  0  0  0  0  0  0  0  0  0  0  0
   -7.4035   -0.4182    0.0000 F   0  0  0  0  0  0  0  0  0  0  0  0
   -5.6401   -2.8452    0.0000 F   0  0  0  0  0  0  0  0  0  0  0  0
   -5.3083    0.7500    0.0000 N   0  0  0  0  0  0  0  0  0  0  0  0
   -3.8817    1.2135    0.0000 N   0  0  0  0  0  0  0  0  0  0  0  0
   -3.4182    2.6401    0.0000 C   0  0  0  0  0  0  0  0  0  0  0  0
   -1.9509    2.9520    0.0000 C   0  0  0  0  0  0  0  0  0  0  0  0
   -1.4874    4.3786    0.0000 C   0  0  0  0  0  0  0  0  0  0  0  0
   -2.4911    5.4933    0.0000 C   0  0  0  0  0  0  0  0  0  0  0  0
   -2.0276    6.9199    0.0000 S   0  0  0  0  0  0  0  0  0  0  0  0
   -0.6010    6.4563    0.0000 O   0  0  0  0  0  0  0  0  0  0  0  0
   -3.4542    7.3834    0.0000 O   0  0  0  0  0  0  0  0  0  0  0  0
   -1.5641    8.3464    0.0000 N   0  0  0  0  0  0  0  0  0  0  0  0
   -2.5677    9.4612    0.0000 C   0  0  0  0  0  0  0  0  0  0  0  0
   -2.1042   10.8878    0.0000 C   0  0  0  0  0  0  0  0  0  0  0  0
   -3.1079   12.0025    0.0000 C   0  0  0  0  0  0  0  0  0  0  0  0
   -2.6444   13.4291    0.0000 C   0  0  0  0  0  0  0  0  0  0  0  0
   -3.6481   14.5438    0.0000 C   0  0  0  0  0  0  0  0  0  0  0  0
   -3.1846   15.9704    0.0000 C   0  0  0  0  0  0  0  0  0  0  0  0
   -4.1883   17.0851    0.0000 C   0  0  0  0  0  0  0  0  0  0  0  0
   -5.6555   16.7732    0.0000 O   0  0  0  0  0  0  0  0  0  0  0  0
   -3.7247   18.5117    0.0000 N   0  0  0  0  0  0  0  0  0  0  0  0
   -4.7284   19.6264    0.0000 O   0  0  0  0  0  0  0  0  0  0  0  0
   -3.9583    5.1814    0.0000 C   0  0  0  0  0  0  0  0  0  0  0  0
   -4.4218    3.7548    0.0000 C   0  0  0  0  0  0  0  0  0  0  0  0
   -0.7500    1.2990    0.0000 C   0  0  0  0  0  0  0  0  0  0  0  0
    0.7500    1.2990    0.0000 C   0  0  0  0  0  0  0  0  0  0  0  0
  1  2  1  0
  2  3  2  0
  3  4  1  0
  4  5  2  0
  5  6  1  0
  6  7  2  0
  7  8  1  0
  8  9  1  0
  9 10  1  0
  9 11  1  0
  9 12  1  0
  8 13  2  0
 13 14  1  0
 14 15  1  0
 15 16  2  0
 16 17  1  0
 17 18  2  0
 18 19  1  0
 19 20  2  0
 19 21  2  0
 19 22  1  0
 22 23  1  0
 23 24  1  0
 24 25  1  0
 25 26  1  0
 26 27  1  0
 27 28  1  0
 28 29  1  0
 29 30  2  0
 29 31  1  0
 31 32  1  0
 18 33  1  0
 33 34  2  0
  5 35  1  0
 35 36  2  0
 36  2  1  0
 14  6  1  0
 34 15  1  0
M  END
>  <molecule_chembl_id>  (227) 
CHEMBL3885496

>  <canonical_smiles>  (227) 
Cc1ccc(-c2cc(C(F)(F)F)nn2-c2ccc(S(=O)(=O)NCCCCCCC(=O)NO)cc2)cc1

>  <pchembl_value_mean>  (227) 
5.39

>  <document_chembl_id>  (227) 
CHEMBL3875218

$$$$

     RDKit          2D

 39 41  0  0  0  0  0  0  0  0999 V2000
    3.0000    0.0000    0.0000 C   0  0  0  0  0  0  0  0  0  0  0  0
    1.5000    0.0000    0.0000 C   0  0  0  0  0  0  0  0  0  0  0  0
    0.7500   -1.2990    0.0000 C   0  0  0  0  0  0  0  0  0  0  0  0
   -0.7500   -1.2990    0.0000 C   0  0  0  0  0  0  0  0  0  0  0  0
   -1.5000   -2.5981    0.0000 C   0  0  0  0  0  0  0  0  0  0  0  0
   -1.5000    0.0000    0.0000 C   0  0  0  0  0  0  0  0  0  0  0  0
   -0.7500    1.2990    0.0000 C   0  0  0  0  0  0  0  0  0  0  0  0
   -1.5000    2.5981    0.0000 C   0  0  0  0  0  0  0  0  0  0  0  0
   -0.7500    3.8971    0.0000 N   0  0  0  0  0  0  0  0  0  0  0  0
   -1.5000    5.1962    0.0000 C   0  0  0  0  0  0  0  0  0  0  0  0
   -3.0000    5.1962    0.0000 O   0  0  0  0  0  0  0  0  0  0  0  0
   -0.7500    6.4952    0.0000 C   0  0  0  0  0  0  0  0  0  0  0  0
   -1.5000    7.7942    0.0000 N   0  0  0  0  0  0  0  0  0  0  0  0
   -0.7500    9.0933    0.0000 C   0  0  0  0  0  0  0  0  0  0  0  0
   -1.5000   10.3923    0.0000 C   0  0  0  0  0  0  0  0  0  0  0  0
   -0.7500   11.6913    0.0000 C   0  0  0  0  0  0  0  0  0  0  0  0
   -1.5000   12.9904    0.0000 C   0  0  0  0  0  0  0  0  0  0  0  0
   -0.7500   14.2894    0.0000 C   0  0  0  0  0  0  0  0  0  0  0  0
   -1.5000   15.5885    0.0000 C   0  0  0  0  0  0  0  0  0  0  0  0
   -3.0000   15.5885    0.0000 O   0  0  0  0  0  0  0  0  0  0  0  0
   -0.7500   16.8875    0.0000 N   0  0  0  0  0  0  0  0  0  0  0  0
   -1.5000   18.1865    0.0000 C   0  0  0  0  0  0  0  0  0  0  0  0
   -0.7500   19.4856    0.0000 C   0  0  0  0  0  0  0  0  0  0  0  0
   -1.5000   20.7846    0.0000 C   0  0  0  0  0  0  0  0  0  0  0  0
   -3.0000   20.7846    0.0000 C   0  0  0  0  0  0  0  0  0  0  0  0
   -3.7500   19.4856    0.0000 C   0  0  0  0  0  0  0  0  0  0  0  0
   -3.0000   18.1865    0.0000 C   0  0  0  0  0  0  0  0  0  0  0  0
   -3.7500   16.8875    0.0000 N   0  0  0  0  0  0  0  0  0  0  0  0
   -3.0000    7.7942    0.0000 C   0  0  0  0  0  0  0  0  0  0  0  0
   -3.7500    6.4952    0.0000 O   0  0  0  0  0  0  0  0  0  0  0  0
   -3.7500    9.0933    0.0000 C   0  0  0  0  0  0  0  0  0  0  0  0
   -3.0000   10.3923    0.0000 C   0  0  0  0  0  0  0  0  0  0  0  0
   -3.7500   11.6913    0.0000 C   0  0  0  0  0  0  0  0  0  0  0  0
   -3.0000   12.9904    0.0000 C   0  0  0  0  0  0  0  0  0  0  0  0
   -5.2500   11.6913    0.0000 C   0  0  0  0  0  0  0  0  0  0  0  0
   -6.0000   10.3923    0.0000 C   0  0  0  0  0  0  0  0  0  0  0  0
   -7.5000   10.3923    0.0000 C   0  0  0  0  0  0  0  0  0  0  0  0
   -5.2500    9.0933    0.0000 C   0  0  0  0  0  0  0  0  0  0  0  0
    0.7500    1.2990    0.0000 C   0  0  0  0  0  0  0  0  0  0  0  0
  1  2  1  0
  2  3  2  0
  3  4  1  0
  4  5  1  0
  4  6  2  0
  6  7  1  0
  7  8  1  0
  8  9  1  0
  9 10  1  0
 10 11  2  0
 10 12  1  0
 12 13  1  0
 13 14  1  0
 14 15  1  0
 15 16  1  0
 16 17  1  0
 17 18  1  0
 18 19  1  0
 19 20  2  0
 19 21  1  0
 21 22  1  0
 22 23  2  0
 23 24  1  0
 24 25  2  0
 25 26  1  0
 26 27  2  0
 27 28  1  0
 13 29  1  0
 29 30  2  0
 29 31  1  0
 31 32  2  0
 32 33  1  0
 33 34  1  0
 33 35  2  0
 35 36  1  0
 36 37  1  0
 36 38  2  0
  7 39  2  0
 39  2  1  0
 27 22  1  0
 38 31  1  0
M  END
>  <molecule_chembl_id>  (228) 
CHEMBL4444763

>  <canonical_smiles>  (228) 
Cc1cc(C)cc(CNC(=O)CN(CCCCCC(=O)Nc2ccccc2N)C(=O)c2cc(C)cc(C)c2)c1

>  <pchembl_value_mean>  (228) 
5.39

>  <document_chembl_id>  (228) 
CHEMBL4334526

$$$$

     RDKit          2D

 25 27  0  0  0  0  0  0  0  0999 V2000
    1.5000   -5.1962    0.0000 C   0  0  0  0  0  0  0  0  0  0  0  0
    0.7500   -3.8971    0.0000 C   0  0  0  0  0  0  0  0  0  0  0  0
    1.5000   -2.5981    0.0000 N   0  0  0  0  0  0  0  0  0  0  0  0
    0.7500   -1.2990    0.0000 C   0  0  0  0  0  0  0  0  0  0  0  0
    1.5000    0.0000    0.0000 C   0  0  0  0  0  0  0  0  0  0  0  0
    0.7500    1.2990    0.0000 C   0  0  0  0  0  0  0  0  0  0  0  0
    1.5000    2.5981    0.0000 C   0  0  0  0  0  0  0  0  0  0  0  0
    3.0000    2.5981    0.0000 C   0  0  0  0  0  0  0  0  0  0  0  0
    3.7500    3.8971    0.0000 C   0  0  0  0  0  0  0  0  0  0  0  0
    3.0000    5.1962    0.0000 O   0  0  0  0  0  0  0  0  0  0  0  0
    5.2500    3.8971    0.0000 N   0  0  0  0  0  0  0  0  0  0  0  0
    6.0000    5.1962    0.0000 O   0  0  0  0  0  0  0  0  0  0  0  0
   -0.7500    1.2990    0.0000 C   0  0  0  0  0  0  0  0  0  0  0  0
   -1.5000    0.0000    0.0000 C   0  0  0  0  0  0  0  0  0  0  0  0
   -0.7500   -1.2990    0.0000 C   0  0  0  0  0  0  0  0  0  0  0  0
   -1.5000   -2.5981    0.0000 C   0  0  0  0  0  0  0  0  0  0  0  0
   -3.0000   -2.5981    0.0000 O   0  0  0  0  0  0  0  0  0  0  0  0
   -0.7500   -3.8971    0.0000 N   0  0  0  0  0  0  0  0  0  0  0  0
   -1.5000   -5.1962    0.0000 C   0  0  0  0  0  0  0  0  0  0  0  0
   -3.0000   -5.1962    0.0000 C   0  0  0  0  0  0  0  0  0  0  0  0
   -3.7500   -3.8971    0.0000 C   0  0  0  0  0  0  0  0  0  0  0  0
   -5.2500   -3.8971    0.0000 C   0  0  0  0  0  0  0  0  0  0  0  0
   -6.0000   -5.1962    0.0000 C   0  0  0  0  0  0  0  0  0  0  0  0
   -5.2500   -6.4952    0.0000 C   0  0  0  0  0  0  0  0  0  0  0  0
   -3.7500   -6.4952    0.0000 C   0  0  0  0  0  0  0  0  0  0  0  0
  1  2  1  0
  2  3  2  0
  3  4  1  0
  4  5  2  0
  5  6  1  0
  6  7  1  0
  7  8  2  3
  8  9  1  0
  9 10  2  0
  9 11  1  0
 11 12  1  0
  6 13  2  0
 13 14  1  0
 14 15  2  0
 15 16  1  0
 16 17  2  0
 16 18  1  0
 18 19  1  0
 19 20  1  0
 20 21  2  0
 21 22  1  0
 22 23  2  0
 23 24  1  0
 24 25  2  0
 18  2  1  0
 25 20  1  0
 15  4  1  0
M  END
>  <molecule_chembl_id>  (229) 
CHEMBL2425957

>  <canonical_smiles>  (229) 
Cc1nc2cc(C=CC(=O)NO)ccc2c(=O)n1Cc1ccccc1

>  <pchembl_value_mean>  (229) 
5.4

>  <document_chembl_id>  (229) 
CHEMBL2424579

$$$$

     RDKit          2D

 30 33  0  0  0  0  0  0  0  0999 V2000
    3.7500    1.2990    0.0000 O   0  0  0  0  0  0  0  0  0  0  0  0
    3.0000    0.0000    0.0000 C   0  0  0  0  0  0  0  0  0  0  0  0
    3.7500   -1.2990    0.0000 N   0  0  0  0  0  0  0  0  0  0  0  0
    5.2500   -1.2990    0.0000 O   0  0  0  0  0  0  0  0  0  0  0  0
    1.5000    0.0000    0.0000 C   0  0  0  0  0  0  0  0  0  0  0  0
    0.7500   -1.2990    0.0000 C   0  0  0  0  0  0  0  0  0  0  0  0
   -0.7500   -1.2990    0.0000 C   0  0  0  0  0  0  0  0  0  0  0  0
   -1.5000    0.0000    0.0000 C   0  0  0  0  0  0  0  0  0  0  0  0
   -3.0000    0.0000    0.0000 C   0  0  0  0  0  0  0  0  0  0  0  0
   -3.7500    1.2990    0.0000 C   0  0  0  0  0  0  0  0  0  0  0  0
   -5.2500    1.2990    0.0000 C   0  0  0  0  0  0  0  0  0  0  0  0
   -6.0000    2.5981    0.0000 N   0  0  0  0  0  0  0  0  0  0  0  0
   -5.2500    3.8971    0.0000 C   0  0  0  0  0  0  0  0  0  0  0  0
   -6.0000    5.1962    0.0000 C   0  0  0  0  0  0  0  0  0  0  0  0
   -7.5000    5.1962    0.0000 C   0  0  0  0  0  0  0  0  0  0  0  0
   -8.2500    6.4952    0.0000 C   0  0  0  0  0  0  0  0  0  0  0  0
   -7.5000    7.7942    0.0000 N   0  0  0  0  0  0  0  0  0  0  0  0
   -8.2500    9.0933    0.0000 C   0  0  0  0  0  0  0  0  0  0  0  0
   -9.5490    9.8433    0.0000 C   0  0  0  0  0  0  0  0  0  0  0  0
   -8.2500   10.5933    0.0000 C   0  0  0  0  0  0  0  0  0  0  0  0
   -7.5000   11.8923    0.0000 C   0  0  0  0  0  0  0  0  0  0  0  0
   -6.0000   11.8923    0.0000 C   0  0  0  0  0  0  0  0  0  0  0  0
   -5.2500   13.1913    0.0000 C   0  0  0  0  0  0  0  0  0  0  0  0
   -6.0000   14.4904    0.0000 C   0  0  0  0  0  0  0  0  0  0  0  0
   -7.5000   14.4904    0.0000 C   0  0  0  0  0  0  0  0  0  0  0  0
   -8.2500   13.1913    0.0000 C   0  0  0  0  0  0  0  0  0  0  0  0
   -8.2500    3.8971    0.0000 C   0  0  0  0  0  0  0  0  0  0  0  0
   -7.5000    2.5981    0.0000 C   0  0  0  0  0  0  0  0  0  0  0  0
   -0.7500    1.2990    0.0000 C   0  0  0  0  0  0  0  0  0  0  0  0
    0.7500    1.2990    0.0000 C   0  0  0  0  0  0  0  0  0  0  0  0
  1  2  2  0
  2  3  1  0
  3  4  1  0
  2  5  1  0
  5  6  2  0
  6  7  1  0
  7  8  2  0
  8  9  1  0
  9 10  1  0
 10 11  1  0
 11 12  1  0
 12 13  1  0
 13 14  1  0
 14 15  1  0
 15 16  1  0
 16 17  1  0
 17 18  1  0
 18 19  1  0
 19 20  1  0
 20 21  1  0
 21 22  2  0
 22 23  1  0
 23 24  2  0
 24 25  1  0
 25 26  2  0
 15 27  1  0
 27 28  1  0
  8 29  1  0
 29 30  2  0
 30  5  1  0
 28 12  1  0
 20 18  1  0
 26 21  1  0
M  END
>  <molecule_chembl_id>  (230) 
CHEMBL4749146

>  <canonical_smiles>  (230) 
O=C(NO)c1ccc(CCCN2CCC(CNC3CC3c3ccccc3)CC2)cc1

>  <pchembl_value_mean>  (230) 
5.4

>  <document_chembl_id>  (230) 
CHEMBL4715885

$$$$

     RDKit          2D

 32 34  0  0  0  0  0  0  0  0999 V2000
    7.1825    5.4735    0.0000 C   0  0  0  0  0  0  0  0  0  0  0  0
    5.7278    5.1076    0.0000 C   0  0  0  0  0  0  0  0  0  0  0  0
    4.6836    6.1845    0.0000 C   0  0  0  0  0  0  0  0  0  0  0  0
    5.3173    3.6649    0.0000 C   0  0  0  0  0  0  0  0  0  0  0  0
    3.8237    3.8033    0.0000 N   0  0  0  0  0  0  0  0  0  0  0  0
    2.3810    3.3928    0.0000 C   0  0  0  0  0  0  0  0  0  0  0  0
    1.7124    4.7355    0.0000 O   0  0  0  0  0  0  0  0  0  0  0  0
    1.1839    2.4889    0.0000 C   0  0  0  0  0  0  0  0  0  0  0  0
    0.3943    1.2135    0.0000 N   0  0  0  0  0  0  0  0  0  0  0  0
    1.2760    0.0000    0.0000 C   0  0  0  0  0  0  0  0  0  0  0  0
    0.3943   -1.2135    0.0000 C   0  0  0  0  0  0  0  0  0  0  0  0
   -1.0323   -0.7500    0.0000 N   0  0  0  0  0  0  0  0  0  0  0  0
   -1.0323    0.7500    0.0000 N   0  0  0  0  0  0  0  0  0  0  0  0
    1.1839   -3.0107    0.0000 C   0  0  0  0  0  0  0  0  0  0  0  0
    0.9630   -4.4944    0.0000 C   0  0  0  0  0  0  0  0  0  0  0  0
    2.3057   -5.1630    0.0000 S   0  0  0  0  0  0  0  0  0  0  0  0
    3.8237   -4.3252    0.0000 C   0  0  0  0  0  0  0  0  0  0  0  0
    2.3810   -3.9147    0.0000 N   0  0  0  0  0  0  0  0  0  0  0  0
    5.3173   -4.1868    0.0000 C   0  0  0  0  0  0  0  0  0  0  0  0
    6.6601   -3.5182    0.0000 N   0  0  0  0  0  0  0  0  0  0  0  0
    7.6706   -2.4096    0.0000 C   0  0  0  0  0  0  0  0  0  0  0  0
    8.9459   -3.1993    0.0000 O   0  0  0  0  0  0  0  0  0  0  0  0
    8.2125   -1.0109    0.0000 C   0  0  0  0  0  0  0  0  0  0  0  0
    8.2125    0.4891    0.0000 C   0  0  0  0  0  0  0  0  0  0  0  0
    9.6869    0.7647    0.0000 C   0  0  0  0  0  0  0  0  0  0  0  0
   10.6629   -0.3744    0.0000 C   0  0  0  0  0  0  0  0  0  0  0  0
   12.1373   -0.0988    0.0000 C   0  0  0  0  0  0  0  0  0  0  0  0
   13.1132   -1.2379    0.0000 C   0  0  0  0  0  0  0  0  0  0  0  0
   14.5877   -0.9623    0.0000 S   0  0  0  0  0  0  0  0  0  0  0  0
    7.6706    1.8878    0.0000 O   0  0  0  0  0  0  0  0  0  0  0  0
    6.6601    2.9963    0.0000 C   0  0  0  0  0  0  0  0  0  0  0  0
    7.5640    4.1933    0.0000 O   0  0  0  0  0  0  0  0  0  0  0  0
  1  2  1  0
  2  3  1  0
  2  4  1  0
  4  5  1  0
  5  6  1  0
  6  7  2  0
  6  8  1  0
  8  9  1  0
  9 10  1  0
 10 11  2  0
 11 12  1  0
 12 13  2  0
 11 14  1  0
 14 15  2  0
 15 16  1  0
 16 17  1  0
 17 18  2  0
 17 19  1  0
 19 20  1  0
 20 21  1  0
 21 22  2  0
 21 23  1  0
 23 24  1  0
 24 25  1  0
 25 26  2  3
 26 27  1  0
 27 28  1  0
 28 29  1  0
 24 30  1  0
 30 31  1  0
 31 32  2  0
 31  4  1  0
 13  9  1  0
 18 14  1  0
M  END
>  <molecule_chembl_id>  (231) 
CHEMBL2323290

>  <canonical_smiles>  (231) 
CC(C)C1NC(=O)Cn2cc(nn2)-c2csc(n2)CNC(=O)CC(C=CCCS)OC1=O

>  <pchembl_value_mean>  (231) 
5.41

>  <document_chembl_id>  (231) 
CHEMBL2321647

$$$$

     RDKit          2D

 34 37  0  0  0  0  0  0  0  0999 V2000
   -4.3786   -5.1199    0.0000 C   0  0  0  0  0  0  0  0  0  0  0  0
   -2.9520   -4.6564    0.0000 C   0  0  0  0  0  0  0  0  0  0  0  0
   -2.6401   -3.1891    0.0000 C   0  0  0  0  0  0  0  0  0  0  0  0
   -1.2135   -2.7256    0.0000 C   0  0  0  0  0  0  0  0  0  0  0  0
   -0.0000   -3.6073    0.0000 N   0  0  0  0  0  0  0  0  0  0  0  0
    1.2135   -2.7256    0.0000 N   0  0  0  0  0  0  0  0  0  0  0  0
    2.6401   -3.1891    0.0000 C   0  0  0  0  0  0  0  0  0  0  0  0
    0.7500   -1.2990    0.0000 C   0  0  0  0  0  0  0  0  0  0  0  0
    1.5000    0.0000    0.0000 C   0  0  0  0  0  0  0  0  0  0  0  0
    3.0000    0.0000    0.0000 O   0  0  0  0  0  0  0  0  0  0  0  0
    0.7500    1.2990    0.0000 N   0  0  0  0  0  0  0  0  0  0  0  0
   -0.7500    1.2990    0.0000 C   0  0  0  0  0  0  0  0  0  0  0  0
   -1.5000    2.5981    0.0000 C   0  0  0  0  0  0  0  0  0  0  0  0
   -0.7500    3.8971    0.0000 C   0  0  0  0  0  0  0  0  0  0  0  0
   -1.5000    5.1962    0.0000 C   0  0  0  0  0  0  0  0  0  0  0  0
   -0.7500    6.4952    0.0000 C   0  0  0  0  0  0  0  0  0  0  0  0
    0.7500    6.4952    0.0000 C   0  0  0  0  0  0  0  0  0  0  0  0
    1.5000    5.1962    0.0000 C   0  0  0  0  0  0  0  0  0  0  0  0
    3.0000    5.1962    0.0000 C   0  0  0  0  0  0  0  0  0  0  0  0
    3.7500    6.4952    0.0000 C   0  0  0  0  0  0  0  0  0  0  0  0
    5.2500    6.4952    0.0000 C   0  0  0  0  0  0  0  0  0  0  0  0
    6.0000    7.7942    0.0000 O   0  0  0  0  0  0  0  0  0  0  0  0
    6.0000    5.1962    0.0000 N   0  0  0  0  0  0  0  0  0  0  0  0
    7.5000    5.1962    0.0000 O   0  0  0  0  0  0  0  0  0  0  0  0
    3.0000    7.7942    0.0000 C   0  0  0  0  0  0  0  0  0  0  0  0
    1.5000    7.7942    0.0000 C   0  0  0  0  0  0  0  0  0  0  0  0
   -3.0000    5.1962    0.0000 C   0  0  0  0  0  0  0  0  0  0  0  0
   -3.7500    3.8971    0.0000 C   0  0  0  0  0  0  0  0  0  0  0  0
   -3.0000    2.5981    0.0000 C   0  0  0  0  0  0  0  0  0  0  0  0
   -3.7500    1.2990    0.0000 O   0  0  0  0  0  0  0  0  0  0  0  0
   -5.2500    1.2990    0.0000 C   0  0  0  0  0  0  0  0  0  0  0  0
   -6.0000    0.0000    0.0000 C   0  0  0  0  0  0  0  0  0  0  0  0
   -1.5000    0.0000    0.0000 N   0  0  0  0  0  0  0  0  0  0  0  0
   -0.7500   -1.2990    0.0000 C   0  0  0  0  0  0  0  0  0  0  0  0
  1  2  1  0
  2  3  1  0
  3  4  1  0
  4  5  2  0
  5  6  1  0
  6  7  1  0
  6  8  1  0
  8  9  1  0
  9 10  2  0
  9 11  1  0
 11 12  1  0
 12 13  1  0
 13 14  2  0
 14 15  1  0
 15 16  1  0
 16 17  1  0
 17 18  2  0
 18 19  1  0
 19 20  2  0
 20 21  1  0
 21 22  2  0
 21 23  1  0
 23 24  1  0
 20 25  1  0
 25 26  2  0
 15 27  2  0
 27 28  1  0
 28 29  2  0
 29 30  1  0
 30 31  1  0
 31 32  1  0
 12 33  2  0
 33 34  1  0
 34  4  1  0
 34  8  2  0
 29 13  1  0
 26 17  1  0
M  END
>  <molecule_chembl_id>  (232) 
CHEMBL4217821

>  <canonical_smiles>  (232) 
CCCc1nn(C)c2c(=O)[nH]c(-c3cc(Cc4ccc(C(=O)NO)cc4)ccc3OCC)nc12

>  <pchembl_value_mean>  (232) 
5.41

>  <document_chembl_id>  (232) 
CHEMBL4196089

$$$$

     RDKit          2D

 22 24  0  0  0  0  0  0  0  0999 V2000
   -2.5981   -5.1073    0.0000 N   0  0  0  0  0  0  0  0  0  0  0  0
   -1.2990   -5.8573    0.0000 C   0  0  0  0  0  0  0  0  0  0  0  0
   -1.2990   -7.3573    0.0000 C   0  0  0  0  0  0  0  0  0  0  0  0
   -2.5981   -8.1073    0.0000 C   0  0  0  0  0  0  0  0  0  0  0  0
   -3.8971   -7.3573    0.0000 C   0  0  0  0  0  0  0  0  0  0  0  0
   -5.1962   -8.1073    0.0000 C   0  0  0  0  0  0  0  0  0  0  0  0
   -5.1962   -9.6073    0.0000 C   0  0  0  0  0  0  0  0  0  0  0  0
   -6.4952  -10.3573    0.0000 Cl  0  0  0  0  0  0  0  0  0  0  0  0
   -3.8971  -10.3573    0.0000 C   0  0  0  0  0  0  0  0  0  0  0  0
   -2.5981   -9.6073    0.0000 C   0  0  0  0  0  0  0  0  0  0  0  0
   -1.2990  -10.3573    0.0000 Cl  0  0  0  0  0  0  0  0  0  0  0  0
   -0.0000   -5.1073    0.0000 C   0  0  0  0  0  0  0  0  0  0  0  0
    1.2990   -5.8573    0.0000 O   0  0  0  0  0  0  0  0  0  0  0  0
   -0.0000   -3.6073    0.0000 N   0  0  0  0  0  0  0  0  0  0  0  0
    1.2135   -2.7256    0.0000 C   0  0  0  0  0  0  0  0  0  0  0  0
    0.7500   -1.2990    0.0000 C   0  0  0  0  0  0  0  0  0  0  0  0
    1.5000    0.0000    0.0000 C   0  0  0  0  0  0  0  0  0  0  0  0
    0.7500    1.2990    0.0000 C   0  0  0  0  0  0  0  0  0  0  0  0
   -0.7500    1.2990    0.0000 C   0  0  0  0  0  0  0  0  0  0  0  0
   -1.5000    0.0000    0.0000 C   0  0  0  0  0  0  0  0  0  0  0  0
   -0.7500   -1.2990    0.0000 C   0  0  0  0  0  0  0  0  0  0  0  0
   -1.2135   -2.7256    0.0000 C   0  0  0  0  0  0  0  0  0  0  0  0
  1  2  1  0
  2  3  1  0
  3  4  1  0
  4  5  2  0
  5  6  1  0
  6  7  2  0
  7  8  1  0
  7  9  1  0
  9 10  2  0
 10 11  1  0
  2 12  1  0
 12 13  2  0
 12 14  1  0
 14 15  1  0
 15 16  1  0
 16 17  2  0
 17 18  1  0
 18 19  2  0
 19 20  1  0
 20 21  2  0
 21 22  1  0
 10  4  1  0
 22 14  1  0
 21 16  1  0
M  END
>  <molecule_chembl_id>  (233) 
CHEMBL1812335

>  <canonical_smiles>  (233) 
NC(Cc1ccc(Cl)cc1Cl)C(=O)N1Cc2ccccc2C1

>  <pchembl_value_mean>  (233) 
5.41

>  <document_chembl_id>  (233) 
CHEMBL1811912

$$$$

     RDKit          2D

 36 40  0  0  0  0  0  0  0  0999 V2000
    8.6575    5.6260    0.0000 N   0  0  0  0  0  0  0  0  0  0  0  0
    9.6612    4.5113    0.0000 C   0  0  0  0  0  0  0  0  0  0  0  0
   11.1284    4.8232    0.0000 C   0  0  0  0  0  0  0  0  0  0  0  0
   12.1321    3.7085    0.0000 C   0  0  0  0  0  0  0  0  0  0  0  0
   11.6685    2.2819    0.0000 C   0  0  0  0  0  0  0  0  0  0  0  0
   10.2013    1.9700    0.0000 C   0  0  0  0  0  0  0  0  0  0  0  0
    9.1976    3.0847    0.0000 C   0  0  0  0  0  0  0  0  0  0  0  0
    7.7304    2.7729    0.0000 N   0  0  0  0  0  0  0  0  0  0  0  0
    6.7267    3.8876    0.0000 C   0  0  0  0  0  0  0  0  0  0  0  0
    7.1902    5.3142    0.0000 O   0  0  0  0  0  0  0  0  0  0  0  0
    5.2595    3.5757    0.0000 C   0  0  0  0  0  0  0  0  0  0  0  0
    4.2558    4.6904    0.0000 C   0  0  0  0  0  0  0  0  0  0  0  0
    2.7886    4.3786    0.0000 C   0  0  0  0  0  0  0  0  0  0  0  0
    2.3250    2.9520    0.0000 C   0  0  0  0  0  0  0  0  0  0  0  0
    0.8578    2.6401    0.0000 C   0  0  0  0  0  0  0  0  0  0  0  0
    0.3943    1.2135    0.0000 N   0  0  0  0  0  0  0  0  0  0  0  0
    1.2760    0.0000    0.0000 C   0  0  0  0  0  0  0  0  0  0  0  0
    0.3943   -1.2135    0.0000 N   0  0  0  0  0  0  0  0  0  0  0  0
   -1.0323   -0.7500    0.0000 C   0  0  0  0  0  0  0  0  0  0  0  0
   -2.3313   -1.5000    0.0000 C   0  0  0  0  0  0  0  0  0  0  0  0
   -2.3313   -3.0000    0.0000 N   0  0  0  0  0  0  0  0  0  0  0  0
   -3.6304   -3.7500    0.0000 C   0  0  0  0  0  0  0  0  0  0  0  0
   -4.9294   -3.0000    0.0000 C   0  0  0  0  0  0  0  0  0  0  0  0
   -6.2284   -3.7500    0.0000 C   0  0  0  0  0  0  0  0  0  0  0  0
   -6.2284   -5.2500    0.0000 C   0  0  0  0  0  0  0  0  0  0  0  0
   -7.5275   -6.0000    0.0000 F   0  0  0  0  0  0  0  0  0  0  0  0
   -4.9294   -6.0000    0.0000 C   0  0  0  0  0  0  0  0  0  0  0  0
   -4.9294   -7.5000    0.0000 Cl  0  0  0  0  0  0  0  0  0  0  0  0
   -3.6304   -5.2500    0.0000 C   0  0  0  0  0  0  0  0  0  0  0  0
   -3.6304   -0.7500    0.0000 N   0  0  0  0  0  0  0  0  0  0  0  0
   -3.6304    0.7500    0.0000 C   0  0  0  0  0  0  0  0  0  0  0  0
   -4.9294    1.5000    0.0000 Cl  0  0  0  0  0  0  0  0  0  0  0  0
   -2.3313    1.5000    0.0000 N   0  0  0  0  0  0  0  0  0  0  0  0
   -1.0323    0.7500    0.0000 C   0  0  0  0  0  0  0  0  0  0  0  0
    3.3287    1.8373    0.0000 C   0  0  0  0  0  0  0  0  0  0  0  0
    4.7960    2.1491    0.0000 C   0  0  0  0  0  0  0  0  0  0  0  0
  1  2  1  0
  2  3  2  0
  3  4  1  0
  4  5  2  0
  5  6  1  0
  6  7  2  0
  7  8  1  0
  8  9  1  0
  9 10  2  0
  9 11  1  0
 11 12  2  0
 12 13  1  0
 13 14  2  0
 14 15  1  0
 15 16  1  0
 16 17  1  0
 17 18  2  0
 18 19  1  0
 19 20  2  0
 20 21  1  0
 21 22  1  0
 22 23  2  0
 23 24  1  0
 24 25  2  0
 25 26  1  0
 25 27  1  0
 27 28  1  0
 27 29  2  0
 20 30  1  0
 30 31  2  0
 31 32  1  0
 31 33  1  0
 33 34  2  0
 14 35  1  0
 35 36  2  0
  7  2  1  0
 36 11  1  0
 34 16  1  0
 34 19  1  0
 29 22  1  0
M  END
>  <molecule_chembl_id>  (234) 
CHEMBL4784684

>  <canonical_smiles>  (234) 
Nc1ccccc1NC(=O)c1ccc(Cn2cnc3c(Nc4ccc(F)c(Cl)c4)nc(Cl)nc32)cc1

>  <pchembl_value_mean>  (234) 
5.42

>  <document_chembl_id>  (234) 
CHEMBL4765296

$$$$

     RDKit          2D

 29 31  0  0  0  0  0  0  0  0999 V2000
    3.7500   -1.2990    0.0000 C   0  0  0  0  0  0  0  0  0  0  0  0
    3.0000    0.0000    0.0000 O   0  0  0  0  0  0  0  0  0  0  0  0
    1.5000    0.0000    0.0000 C   0  0  0  0  0  0  0  0  0  0  0  0
    0.7500   -1.2990    0.0000 C   0  0  0  0  0  0  0  0  0  0  0  0
   -0.7500   -1.2990    0.0000 C   0  0  0  0  0  0  0  0  0  0  0  0
   -1.5000    0.0000    0.0000 C   0  0  0  0  0  0  0  0  0  0  0  0
   -3.0000    0.0000    0.0000 C   0  0  0  0  0  0  0  0  0  0  0  0
   -3.8817   -1.2135    0.0000 N   0  0  0  0  0  0  0  0  0  0  0  0
   -5.3083   -0.7500    0.0000 O   0  0  0  0  0  0  0  0  0  0  0  0
   -5.3083    0.7500    0.0000 C   0  0  0  0  0  0  0  0  0  0  0  0
   -6.5218    1.6317    0.0000 C   0  0  0  0  0  0  0  0  0  0  0  0
   -6.3650    3.1235    0.0000 C   0  0  0  0  0  0  0  0  0  0  0  0
   -7.5785    4.0051    0.0000 C   0  0  0  0  0  0  0  0  0  0  0  0
   -7.4217    5.4969    0.0000 C   0  0  0  0  0  0  0  0  0  0  0  0
   -8.6353    6.3786    0.0000 C   0  0  0  0  0  0  0  0  0  0  0  0
   -8.4785    7.8704    0.0000 C   0  0  0  0  0  0  0  0  0  0  0  0
   -9.6920    8.7521    0.0000 C   0  0  0  0  0  0  0  0  0  0  0  0
  -11.0623    8.1420    0.0000 O   0  0  0  0  0  0  0  0  0  0  0  0
   -9.5352   10.2438    0.0000 N   0  0  0  0  0  0  0  0  0  0  0  0
  -10.7487   11.1255    0.0000 C   0  0  0  0  0  0  0  0  0  0  0  0
  -10.5919   12.6173    0.0000 C   0  0  0  0  0  0  0  0  0  0  0  0
  -11.8055   13.4990    0.0000 C   0  0  0  0  0  0  0  0  0  0  0  0
  -13.1758   12.8889    0.0000 C   0  0  0  0  0  0  0  0  0  0  0  0
  -13.3326   11.3971    0.0000 C   0  0  0  0  0  0  0  0  0  0  0  0
  -12.1190   10.5154    0.0000 C   0  0  0  0  0  0  0  0  0  0  0  0
  -12.2758    9.0236    0.0000 N   0  0  0  0  0  0  0  0  0  0  0  0
   -3.8817    1.2135    0.0000 N   0  0  0  0  0  0  0  0  0  0  0  0
   -0.7500    1.2990    0.0000 C   0  0  0  0  0  0  0  0  0  0  0  0
    0.7500    1.2990    0.0000 C   0  0  0  0  0  0  0  0  0  0  0  0
  1  2  1  0
  2  3  1  0
  3  4  2  0
  4  5  1  0
  5  6  2  0
  6  7  1  0
  7  8  2  0
  8  9  1  0
  9 10  1  0
 10 11  1  0
 11 12  1  0
 12 13  1  0
 13 14  1  0
 14 15  1  0
 15 16  1  0
 16 17  1  0
 17 18  2  0
 17 19  1  0
 19 20  1  0
 20 21  2  0
 21 22  1  0
 22 23  2  0
 23 24  1  0
 24 25  2  0
 25 26  1  0
 10 27  2  0
  6 28  1  0
 28 29  2  0
 29  3  1  0
 27  7  1  0
 25 20  1  0
M  END
>  <molecule_chembl_id>  (235) 
CHEMBL3585971

>  <canonical_smiles>  (235) 
COc1ccc(-c2noc(CCCCCCC(=O)Nc3ccccc3N)n2)cc1

>  <pchembl_value_mean>  (235) 
5.42

>  <document_chembl_id>  (235) 
CHEMBL3585316

$$$$

     RDKit          2D

 28 30  0  0  0  0  0  0  0  0999 V2000
   -0.7500   -3.8971    0.0000 O   0  0  0  0  0  0  0  0  0  0  0  0
    0.7500   -3.8971    0.0000 C   0  0  0  0  0  0  0  0  0  0  0  0
    1.5000   -5.1962    0.0000 C   0  0  0  0  0  0  0  0  0  0  0  0
    0.7500   -6.4952    0.0000 C   0  0  0  0  0  0  0  0  0  0  0  0
    1.5000   -7.7942    0.0000 C   0  0  0  0  0  0  0  0  0  0  0  0
    0.7500   -9.0933    0.0000 C   0  0  0  0  0  0  0  0  0  0  0  0
    1.5000  -10.3923    0.0000 C   0  0  0  0  0  0  0  0  0  0  0  0
    2.9918  -10.5491    0.0000 C   0  0  0  0  0  0  0  0  0  0  0  0
    3.3037  -12.0163    0.0000 C   0  0  0  0  0  0  0  0  0  0  0  0
    4.6740  -12.6264    0.0000 C   0  0  0  0  0  0  0  0  0  0  0  0
    5.8875  -11.7447    0.0000 O   0  0  0  0  0  0  0  0  0  0  0  0
    4.8308  -14.1182    0.0000 N   0  0  0  0  0  0  0  0  0  0  0  0
    6.2011  -14.7283    0.0000 O   0  0  0  0  0  0  0  0  0  0  0  0
    2.0046  -12.7663    0.0000 N   0  0  0  0  0  0  0  0  0  0  0  0
    0.8899  -11.7626    0.0000 O   0  0  0  0  0  0  0  0  0  0  0  0
    1.5000   -2.5981    0.0000 N   0  0  0  0  0  0  0  0  0  0  0  0
    0.7500   -1.2990    0.0000 C   0  0  0  0  0  0  0  0  0  0  0  0
    1.5000    0.0000    0.0000 C   0  0  0  0  0  0  0  0  0  0  0  0
    0.7500    1.2990    0.0000 C   0  0  0  0  0  0  0  0  0  0  0  0
   -0.7500    1.2990    0.0000 C   0  0  0  0  0  0  0  0  0  0  0  0
   -1.5000    2.5981    0.0000 C   0  0  0  0  0  0  0  0  0  0  0  0
   -0.7500    3.8971    0.0000 C   0  0  0  0  0  0  0  0  0  0  0  0
   -1.5000    5.1962    0.0000 C   0  0  0  0  0  0  0  0  0  0  0  0
   -3.0000    5.1962    0.0000 C   0  0  0  0  0  0  0  0  0  0  0  0
   -3.7500    3.8971    0.0000 C   0  0  0  0  0  0  0  0  0  0  0  0
   -3.0000    2.5981    0.0000 C   0  0  0  0  0  0  0  0  0  0  0  0
   -1.5000    0.0000    0.0000 C   0  0  0  0  0  0  0  0  0  0  0  0
   -0.7500   -1.2990    0.0000 C   0  0  0  0  0  0  0  0  0  0  0  0
  1  2  2  0
  2  3  1  0
  3  4  1  0
  4  5  1  0
  5  6  1  0
  6  7  1  0
  7  8  2  0
  8  9  1  0
  9 10  1  0
 10 11  2  0
 10 12  1  0
 12 13  1  0
  9 14  2  0
 14 15  1  0
  2 16  1  0
 16 17  1  0
 17 18  2  0
 18 19  1  0
 19 20  2  0
 20 21  1  0
 21 22  2  0
 22 23  1  0
 23 24  2  0
 24 25  1  0
 25 26  2  0
 20 27  1  0
 27 28  2  0
 15  7  1  0
 28 17  1  0
 26 21  1  0
M  END
>  <molecule_chembl_id>  (236) 
CHEMBL468527

>  <canonical_smiles>  (236) 
O=C(CCCCc1cc(C(=O)NO)no1)Nc1ccc(-c2ccccc2)cc1

>  <pchembl_value_mean>  (236) 
5.43

>  <document_chembl_id>  (236) 
CHEMBL1136917

$$$$

     RDKit          2D

 26 28  0  0  0  0  0  0  0  0999 V2000
    4.5000    0.0000    0.0000 N   0  0  0  0  0  0  0  0  0  0  0  0
    3.0000    0.0000    0.0000 C   0  0  0  0  0  0  0  0  0  0  0  0
    1.5000    0.0000    0.0000 C   0  0  0  0  0  0  0  0  0  0  0  0
    0.7500   -1.2990    0.0000 C   0  0  0  0  0  0  0  0  0  0  0  0
   -0.7500   -1.2990    0.0000 C   0  0  0  0  0  0  0  0  0  0  0  0
   -1.5000    0.0000    0.0000 C   0  0  0  0  0  0  0  0  0  0  0  0
   -0.7500    1.2990    0.0000 C   0  0  0  0  0  0  0  0  0  0  0  0
   -1.5000    2.5981    0.0000 C   0  0  0  0  0  0  0  0  0  0  0  0
   -2.9918    2.7549    0.0000 C   0  0  0  0  0  0  0  0  0  0  0  0
   -3.3037    4.2221    0.0000 N   0  0  0  0  0  0  0  0  0  0  0  0
   -4.6740    4.8322    0.0000 C   0  0  0  0  0  0  0  0  0  0  0  0
   -4.8308    6.3240    0.0000 C   0  0  0  0  0  0  0  0  0  0  0  0
   -6.2011    6.9341    0.0000 C   0  0  0  0  0  0  0  0  0  0  0  0
   -6.3579    8.4259    0.0000 C   0  0  0  0  0  0  0  0  0  0  0  0
   -7.7282    9.0360    0.0000 C   0  0  0  0  0  0  0  0  0  0  0  0
   -7.8850   10.5278    0.0000 N   0  0  0  0  0  0  0  0  0  0  0  0
   -6.6715   11.4094    0.0000 C   0  0  0  0  0  0  0  0  0  0  0  0
   -6.8283   12.9012    0.0000 C   0  0  0  0  0  0  0  0  0  0  0  0
   -8.1986   13.5113    0.0000 C   0  0  0  0  0  0  0  0  0  0  0  0
   -9.4121   12.6296    0.0000 C   0  0  0  0  0  0  0  0  0  0  0  0
  -10.7824   13.2397    0.0000 O   0  0  0  0  0  0  0  0  0  0  0  0
   -9.2553   11.1379    0.0000 C   0  0  0  0  0  0  0  0  0  0  0  0
  -10.4688   10.2562    0.0000 S   0  0  0  0  0  0  0  0  0  0  0  0
   -2.0046    4.9721    0.0000 N   0  0  0  0  0  0  0  0  0  0  0  0
   -0.8899    3.9684    0.0000 N   0  0  0  0  0  0  0  0  0  0  0  0
    0.7500    1.2990    0.0000 C   0  0  0  0  0  0  0  0  0  0  0  0
  1  2  3  0
  2  3  1  0
  3  4  2  0
  4  5  1  0
  5  6  2  0
  6  7  1  0
  7  8  1  0
  8  9  2  0
  9 10  1  0
 10 11  1  0
 11 12  1  0
 12 13  1  0
 13 14  1  0
 14 15  1  0
 15 16  1  0
 16 17  1  0
 17 18  2  0
 18 19  1  0
 19 20  2  0
 20 21  1  0
 20 22  1  0
 22 23  2  0
 10 24  1  0
 24 25  2  0
  7 26  2  0
 26  3  1  0
 25  8  1  0
 22 16  1  0
M  END
>  <molecule_chembl_id>  (237) 
CHEMBL3110281

>  <canonical_smiles>  (237) 
N#Cc1cccc(-c2cn(CCCCCn3cccc(O)c3=S)nn2)c1

>  <pchembl_value_mean>  (237) 
5.43

>  <document_chembl_id>  (237) 
CHEMBL3108745

$$$$

     RDKit          2D

 33 36  0  0  0  0  0  0  0  0999 V2000
   -4.3786   -5.1199    0.0000 C   0  0  0  0  0  0  0  0  0  0  0  0
   -2.9520   -4.6564    0.0000 C   0  0  0  0  0  0  0  0  0  0  0  0
   -2.6401   -3.1891    0.0000 C   0  0  0  0  0  0  0  0  0  0  0  0
   -1.2135   -2.7256    0.0000 C   0  0  0  0  0  0  0  0  0  0  0  0
   -0.0000   -3.6073    0.0000 N   0  0  0  0  0  0  0  0  0  0  0  0
    1.2135   -2.7256    0.0000 N   0  0  0  0  0  0  0  0  0  0  0  0
    2.6401   -3.1891    0.0000 C   0  0  0  0  0  0  0  0  0  0  0  0
    0.7500   -1.2990    0.0000 C   0  0  0  0  0  0  0  0  0  0  0  0
    1.5000    0.0000    0.0000 C   0  0  0  0  0  0  0  0  0  0  0  0
    3.0000    0.0000    0.0000 O   0  0  0  0  0  0  0  0  0  0  0  0
    0.7500    1.2990    0.0000 N   0  0  0  0  0  0  0  0  0  0  0  0
   -0.7500    1.2990    0.0000 C   0  0  0  0  0  0  0  0  0  0  0  0
   -1.5000    2.5981    0.0000 C   0  0  0  0  0  0  0  0  0  0  0  0
   -0.7500    3.8971    0.0000 C   0  0  0  0  0  0  0  0  0  0  0  0
   -1.5000    5.1962    0.0000 C   0  0  0  0  0  0  0  0  0  0  0  0
   -0.7500    6.4952    0.0000 C   0  0  0  0  0  0  0  0  0  0  0  0
    0.7500    6.4952    0.0000 C   0  0  0  0  0  0  0  0  0  0  0  0
    1.6317    7.7087    0.0000 C   0  0  0  0  0  0  0  0  0  0  0  0
    3.0583    7.2452    0.0000 C   0  0  0  0  0  0  0  0  0  0  0  0
    3.0583    5.7452    0.0000 C   0  0  0  0  0  0  0  0  0  0  0  0
    4.2718    4.8635    0.0000 C   0  0  0  0  0  0  0  0  0  0  0  0
    5.6421    5.4736    0.0000 O   0  0  0  0  0  0  0  0  0  0  0  0
    4.1150    3.3717    0.0000 N   0  0  0  0  0  0  0  0  0  0  0  0
    5.3285    2.4901    0.0000 O   0  0  0  0  0  0  0  0  0  0  0  0
    1.6317    5.2817    0.0000 S   0  0  0  0  0  0  0  0  0  0  0  0
   -3.0000    5.1962    0.0000 C   0  0  0  0  0  0  0  0  0  0  0  0
   -3.7500    3.8971    0.0000 C   0  0  0  0  0  0  0  0  0  0  0  0
   -3.0000    2.5981    0.0000 C   0  0  0  0  0  0  0  0  0  0  0  0
   -3.7500    1.2990    0.0000 O   0  0  0  0  0  0  0  0  0  0  0  0
   -5.2500    1.2990    0.0000 C   0  0  0  0  0  0  0  0  0  0  0  0
   -6.0000    0.0000    0.0000 C   0  0  0  0  0  0  0  0  0  0  0  0
   -1.5000    0.0000    0.0000 N   0  0  0  0  0  0  0  0  0  0  0  0
   -0.7500   -1.2990    0.0000 C   0  0  0  0  0  0  0  0  0  0  0  0
  1  2  1  0
  2  3  1  0
  3  4  1  0
  4  5  2  0
  5  6  1  0
  6  7  1  0
  6  8  1  0
  8  9  1  0
  9 10  2  0
  9 11  1  0
 11 12  1  0
 12 13  1  0
 13 14  2  0
 14 15  1  0
 15 16  1  0
 16 17  1  0
 17 18  2  0
 18 19  1  0
 19 20  2  0
 20 21  1  0
 21 22  2  0
 21 23  1  0
 23 24  1  0
 20 25  1  0
 15 26  2  0
 26 27  1  0
 27 28  2  0
 28 29  1  0
 29 30  1  0
 30 31  1  0
 12 32  2  0
 32 33  1  0
 33  4  1  0
 33  8  2  0
 28 13  1  0
 25 17  1  0
M  END
>  <molecule_chembl_id>  (238) 
CHEMBL4212186

>  <canonical_smiles>  (238) 
CCCc1nn(C)c2c(=O)[nH]c(-c3cc(Cc4ccc(C(=O)NO)s4)ccc3OCC)nc12

>  <pchembl_value_mean>  (238) 
5.43

>  <document_chembl_id>  (238) 
CHEMBL4196089

$$$$

     RDKit          2D

 25 26  0  0  0  0  0  0  0  0999 V2000
    3.0000    0.0000    0.0000 C   0  0  0  0  0  0  0  0  0  0  0  0
    1.5000    0.0000    0.0000 C   0  0  0  0  0  0  0  0  0  0  0  0
    0.7500   -1.2990    0.0000 C   0  0  0  0  0  0  0  0  0  0  0  0
   -0.7500   -1.2990    0.0000 C   0  0  0  0  0  0  0  0  0  0  0  0
   -1.5000    0.0000    0.0000 C   0  0  0  0  0  0  0  0  0  0  0  0
   -3.0000    0.0000    0.0000 N   0  0  0  0  0  0  0  0  0  0  0  0
   -3.7500    1.2990    0.0000 C   0  0  0  0  0  0  0  0  0  0  0  0
   -3.0000    2.5981    0.0000 O   0  0  0  0  0  0  0  0  0  0  0  0
   -5.2500    1.2990    0.0000 C   0  0  0  0  0  0  0  0  0  0  0  0
   -6.0000    2.5981    0.0000 C   0  0  0  0  0  0  0  0  0  0  0  0
   -7.5000    2.5981    0.0000 C   0  0  0  0  0  0  0  0  0  0  0  0
   -8.2500    3.8971    0.0000 C   0  0  0  0  0  0  0  0  0  0  0  0
   -9.7500    3.8971    0.0000 C   0  0  0  0  0  0  0  0  0  0  0  0
  -10.5000    5.1962    0.0000 C   0  0  0  0  0  0  0  0  0  0  0  0
   -9.7500    6.4952    0.0000 O   0  0  0  0  0  0  0  0  0  0  0  0
  -12.0000    5.1962    0.0000 N   0  0  0  0  0  0  0  0  0  0  0  0
  -12.7500    6.4952    0.0000 C   0  0  0  0  0  0  0  0  0  0  0  0
  -12.0000    7.7942    0.0000 C   0  0  0  0  0  0  0  0  0  0  0  0
  -12.7500    9.0933    0.0000 C   0  0  0  0  0  0  0  0  0  0  0  0
  -14.2500    9.0933    0.0000 C   0  0  0  0  0  0  0  0  0  0  0  0
  -15.0000    7.7942    0.0000 C   0  0  0  0  0  0  0  0  0  0  0  0
  -14.2500    6.4952    0.0000 C   0  0  0  0  0  0  0  0  0  0  0  0
  -15.0000    5.1962    0.0000 N   0  0  0  0  0  0  0  0  0  0  0  0
   -0.7500    1.2990    0.0000 C   0  0  0  0  0  0  0  0  0  0  0  0
    0.7500    1.2990    0.0000 C   0  0  0  0  0  0  0  0  0  0  0  0
  1  2  1  0
  2  3  2  0
  3  4  1  0
  4  5  2  0
  5  6  1  0
  6  7  1  0
  7  8  2  0
  7  9  1  0
  9 10  1  0
 10 11  1  0
 11 12  1  0
 12 13  1  0
 13 14  1  0
 14 15  2  0
 14 16  1  0
 16 17  1  0
 17 18  2  0
 18 19  1  0
 19 20  2  0
 20 21  1  0
 21 22  2  0
 22 23  1  0
  5 24  1  0
 24 25  2  0
 25  2  1  0
 22 17  1  0
M  END
>  <molecule_chembl_id>  (239) 
CHEMBL3940985

>  <canonical_smiles>  (239) 
Cc1ccc(NC(=O)CCCCCC(=O)Nc2ccccc2N)cc1

>  <pchembl_value_mean>  (239) 
5.43

>  <document_chembl_id>  (239) 
CHEMBL3886535

$$$$

     RDKit          2D

 21 23  0  0  0  0  0  0  0  0999 V2000
    3.7500    1.2990    0.0000 O   0  0  0  0  0  0  0  0  0  0  0  0
    3.0000    0.0000    0.0000 C   0  0  0  0  0  0  0  0  0  0  0  0
    3.7500   -1.2990    0.0000 N   0  0  0  0  0  0  0  0  0  0  0  0
    5.2500   -1.2990    0.0000 O   0  0  0  0  0  0  0  0  0  0  0  0
    1.5000    0.0000    0.0000 C   0  0  0  0  0  0  0  0  0  0  0  0
    0.7500   -1.2990    0.0000 C   0  0  0  0  0  0  0  0  0  0  0  0
   -0.7500   -1.2990    0.0000 C   0  0  0  0  0  0  0  0  0  0  0  0
   -1.5000    0.0000    0.0000 C   0  0  0  0  0  0  0  0  0  0  0  0
   -3.0000    0.0000    0.0000 C   0  0  0  0  0  0  0  0  0  0  0  0
   -3.7500    1.2990    0.0000 N   0  0  0  0  0  0  0  0  0  0  0  0
   -3.1399    2.6694    0.0000 N   0  0  0  0  0  0  0  0  0  0  0  0
   -4.2546    3.6731    0.0000 N   0  0  0  0  0  0  0  0  0  0  0  0
   -5.5537    2.9231    0.0000 N   0  0  0  0  0  0  0  0  0  0  0  0
   -5.2418    1.4558    0.0000 C   0  0  0  0  0  0  0  0  0  0  0  0
   -6.2455    0.3411    0.0000 C   0  0  0  0  0  0  0  0  0  0  0  0
   -7.7373    0.4979    0.0000 C   0  0  0  0  0  0  0  0  0  0  0  0
   -8.3474   -0.8724    0.0000 C   0  0  0  0  0  0  0  0  0  0  0  0
   -7.2326   -1.8761    0.0000 C   0  0  0  0  0  0  0  0  0  0  0  0
   -5.9336   -1.1261    0.0000 S   0  0  0  0  0  0  0  0  0  0  0  0
   -0.7500    1.2990    0.0000 C   0  0  0  0  0  0  0  0  0  0  0  0
    0.7500    1.2990    0.0000 C   0  0  0  0  0  0  0  0  0  0  0  0
  1  2  2  0
  2  3  1  0
  3  4  1  0
  2  5  1  0
  5  6  2  0
  6  7  1  0
  7  8  2  0
  8  9  1  0
  9 10  1  0
 10 11  1  0
 11 12  2  0
 12 13  1  0
 13 14  2  0
 14 15  1  0
 15 16  2  0
 16 17  1  0
 17 18  2  0
 18 19  1  0
  8 20  1  0
 20 21  2  0
 21  5  1  0
 14 10  1  0
 19 15  1  0
M  END
>  <molecule_chembl_id>  (240) 
CHEMBL4448410

>  <canonical_smiles>  (240) 
O=C(NO)c1ccc(Cn2nnnc2-c2cccs2)cc1

>  <pchembl_value_mean>  (240) 
5.43

>  <document_chembl_id>  (240) 
CHEMBL4825781

$$$$

     RDKit          2D

 33 35  0  0  0  0  0  0  0  0999 V2000
    3.0000   -7.7942    0.0000 O   0  0  0  0  0  0  0  0  0  0  0  0
    3.7500   -6.4952    0.0000 C   0  0  0  0  0  0  0  0  0  0  0  0
    3.0000   -5.1962    0.0000 N   0  0  0  0  0  0  0  0  0  0  0  0
    1.5000   -5.1962    0.0000 C   0  0  0  0  0  0  0  0  0  0  0  0
    0.7500   -6.4952    0.0000 C   0  0  0  0  0  0  0  0  0  0  0  0
    1.5000   -7.7942    0.0000 C   0  0  0  0  0  0  0  0  0  0  0  0
    0.7500   -9.0933    0.0000 C   0  0  0  0  0  0  0  0  0  0  0  0
    1.5000  -10.3923    0.0000 C   0  0  0  0  0  0  0  0  0  0  0  0
    0.7500  -11.6913    0.0000 C   0  0  0  0  0  0  0  0  0  0  0  0
    1.5000  -12.9904    0.0000 B   0  0  0  0  0  0  0  0  0  0  0  0
    0.7500  -14.2894    0.0000 O   0  0  0  0  0  0  0  0  0  0  0  0
    3.0000  -12.9904    0.0000 O   0  0  0  0  0  0  0  0  0  0  0  0
    0.7500   -3.8971    0.0000 C   0  0  0  0  0  0  0  0  0  0  0  0
   -0.7500   -3.8971    0.0000 O   0  0  0  0  0  0  0  0  0  0  0  0
    1.5000   -2.5981    0.0000 N   0  0  0  0  0  0  0  0  0  0  0  0
    0.7500   -1.2990    0.0000 C   0  0  0  0  0  0  0  0  0  0  0  0
    1.5000    0.0000    0.0000 C   0  0  0  0  0  0  0  0  0  0  0  0
    0.7500    1.2990    0.0000 C   0  0  0  0  0  0  0  0  0  0  0  0
   -0.7500    1.2990    0.0000 C   0  0  0  0  0  0  0  0  0  0  0  0
   -1.5000    0.0000    0.0000 C   0  0  0  0  0  0  0  0  0  0  0  0
   -3.0000    0.0000    0.0000 C   0  0  0  0  0  0  0  0  0  0  0  0
   -3.7500    1.2990    0.0000 C   0  0  0  0  0  0  0  0  0  0  0  0
   -5.2500    1.2990    0.0000 C   0  0  0  0  0  0  0  0  0  0  0  0
   -6.0000    0.0000    0.0000 C   0  0  0  0  0  0  0  0  0  0  0  0
   -5.2500   -1.2990    0.0000 C   0  0  0  0  0  0  0  0  0  0  0  0
   -3.7500   -1.2990    0.0000 C   0  0  0  0  0  0  0  0  0  0  0  0
   -0.7500   -1.2990    0.0000 C   0  0  0  0  0  0  0  0  0  0  0  0
    5.2500   -6.4952    0.0000 C   0  0  0  0  0  0  0  0  0  0  0  0
    6.0000   -7.7942    0.0000 C   0  0  0  0  0  0  0  0  0  0  0  0
    7.5000   -7.7942    0.0000 C   0  0  0  0  0  0  0  0  0  0  0  0
    8.2500   -6.4952    0.0000 C   0  0  0  0  0  0  0  0  0  0  0  0
    7.5000   -5.1962    0.0000 C   0  0  0  0  0  0  0  0  0  0  0  0
    6.0000   -5.1962    0.0000 C   0  0  0  0  0  0  0  0  0  0  0  0
  1  2  2  0
  2  3  1  0
  3  4  1  0
  4  5  1  0
  5  6  1  0
  6  7  1  0
  7  8  1  0
  8  9  1  0
  9 10  1  0
 10 11  1  0
 10 12  1  0
  4 13  1  0
 13 14  2  0
 13 15  1  0
 15 16  1  0
 16 17  2  0
 17 18  1  0
 18 19  2  0
 19 20  1  0
 20 21  1  0
 21 22  2  0
 22 23  1  0
 23 24  2  0
 24 25  1  0
 25 26  2  0
 20 27  2  0
  2 28  1  0
 28 29  2  0
 29 30  1  0
 30 31  2  0
 31 32  1  0
 32 33  2  0
 27 16  1  0
 33 28  1  0
 26 21  1  0
M  END
>  <molecule_chembl_id>  (241) 
CHEMBL491130

>  <canonical_smiles>  (241) 
O=C(NC(CCCCCB(O)O)C(=O)Nc1cccc(-c2ccccc2)c1)c1ccccc1

>  <pchembl_value_mean>  (241) 
5.44

>  <document_chembl_id>  (241) 
CHEMBL1138526

$$$$

     RDKit          2D

 34 38  0  0  0  0  0  0  0  0999 V2000
   -7.7942  -12.6073    0.0000 N   0  0  0  0  0  0  0  0  0  0  0  0
   -9.0933  -11.8573    0.0000 C   0  0  0  0  0  0  0  0  0  0  0  0
  -10.3923  -12.6073    0.0000 C   0  0  0  0  0  0  0  0  0  0  0  0
  -11.6913  -11.8573    0.0000 C   0  0  0  0  0  0  0  0  0  0  0  0
  -11.6913  -10.3573    0.0000 C   0  0  0  0  0  0  0  0  0  0  0  0
  -12.9904   -9.6073    0.0000 C   0  0  0  0  0  0  0  0  0  0  0  0
  -14.3607  -10.2174    0.0000 C   0  0  0  0  0  0  0  0  0  0  0  0
  -15.3644   -9.1027    0.0000 C   0  0  0  0  0  0  0  0  0  0  0  0
  -14.6144   -7.8037    0.0000 C   0  0  0  0  0  0  0  0  0  0  0  0
  -13.1472   -8.1155    0.0000 S   0  0  0  0  0  0  0  0  0  0  0  0
  -10.3923   -9.6073    0.0000 C   0  0  0  0  0  0  0  0  0  0  0  0
   -9.0933  -10.3573    0.0000 C   0  0  0  0  0  0  0  0  0  0  0  0
   -7.7942   -9.6073    0.0000 N   0  0  0  0  0  0  0  0  0  0  0  0
   -6.4952  -10.3573    0.0000 C   0  0  0  0  0  0  0  0  0  0  0  0
   -6.4952  -11.8573    0.0000 O   0  0  0  0  0  0  0  0  0  0  0  0
   -5.1962   -9.6073    0.0000 C   0  0  0  0  0  0  0  0  0  0  0  0
   -3.8971  -10.3573    0.0000 C   0  0  0  0  0  0  0  0  0  0  0  0
   -2.5981   -9.6073    0.0000 C   0  0  0  0  0  0  0  0  0  0  0  0
   -2.5981   -8.1073    0.0000 C   0  0  0  0  0  0  0  0  0  0  0  0
   -1.2990   -7.3573    0.0000 C   0  0  0  0  0  0  0  0  0  0  0  0
   -1.2990   -5.8573    0.0000 N   0  0  0  0  0  0  0  0  0  0  0  0
   -0.0000   -5.1073    0.0000 C   0  0  0  0  0  0  0  0  0  0  0  0
    1.2990   -5.8573    0.0000 O   0  0  0  0  0  0  0  0  0  0  0  0
   -0.0000   -3.6073    0.0000 C   0  0  0  0  0  0  0  0  0  0  0  0
    1.2135   -2.7256    0.0000 C   0  0  0  0  0  0  0  0  0  0  0  0
    0.7500   -1.2990    0.0000 C   0  0  0  0  0  0  0  0  0  0  0  0
    1.5000    0.0000    0.0000 C   0  0  0  0  0  0  0  0  0  0  0  0
    0.7500    1.2990    0.0000 C   0  0  0  0  0  0  0  0  0  0  0  0
   -0.7500    1.2990    0.0000 C   0  0  0  0  0  0  0  0  0  0  0  0
   -1.5000    0.0000    0.0000 C   0  0  0  0  0  0  0  0  0  0  0  0
   -0.7500   -1.2990    0.0000 C   0  0  0  0  0  0  0  0  0  0  0  0
   -1.2135   -2.7256    0.0000 O   0  0  0  0  0  0  0  0  0  0  0  0
   -3.8971   -7.3573    0.0000 C   0  0  0  0  0  0  0  0  0  0  0  0
   -5.1962   -8.1073    0.0000 C   0  0  0  0  0  0  0  0  0  0  0  0
  1  2  1  0
  2  3  2  0
  3  4  1  0
  4  5  2  0
  5  6  1  0
  6  7  2  0
  7  8  1  0
  8  9  2  0
  9 10  1  0
  5 11  1  0
 11 12  2  0
 12 13  1  0
 13 14  1  0
 14 15  2  0
 14 16  1  0
 16 17  2  0
 17 18  1  0
 18 19  2  0
 19 20  1  0
 20 21  1  0
 21 22  1  0
 22 23  2  0
 22 24  1  0
 24 25  2  0
 25 26  1  0
 26 27  2  0
 27 28  1  0
 28 29  2  0
 29 30  1  0
 30 31  2  0
 31 32  1  0
 19 33  1  0
 33 34  2  0
 12  2  1  0
 34 16  1  0
 10  6  1  0
 32 24  1  0
 31 26  1  0
M  END
>  <molecule_chembl_id>  (242) 
CHEMBL3673102

>  <canonical_smiles>  (242) 
Nc1ccc(-c2cccs2)cc1NC(=O)c1ccc(CNC(=O)c2cc3ccccc3o2)cc1

>  <pchembl_value_mean>  (242) 
5.45

>  <document_chembl_id>  (242) 
CHEMBL3638911

$$$$

     RDKit          2D

 26 27  0  0  0  0  0  0  0  0999 V2000
    3.0000  -12.9904    0.0000 O   0  0  0  0  0  0  0  0  0  0  0  0
    1.5000  -12.9904    0.0000 C   0  0  0  0  0  0  0  0  0  0  0  0
    0.7500  -11.6913    0.0000 C   0  0  0  0  0  0  0  0  0  0  0  0
    1.5000  -10.3923    0.0000 C   0  0  0  0  0  0  0  0  0  0  0  0
    0.7500   -9.0933    0.0000 C   0  0  0  0  0  0  0  0  0  0  0  0
    1.5000   -7.7942    0.0000 C   0  0  0  0  0  0  0  0  0  0  0  0
    0.7500   -6.4952    0.0000 C   0  0  0  0  0  0  0  0  0  0  0  0
    1.5000   -5.1962    0.0000 C   0  0  0  0  0  0  0  0  0  0  0  0
    0.7500   -3.8971    0.0000 C   0  0  0  0  0  0  0  0  0  0  0  0
   -0.7500   -3.8971    0.0000 O   0  0  0  0  0  0  0  0  0  0  0  0
    1.5000   -2.5981    0.0000 N   0  0  0  0  0  0  0  0  0  0  0  0
    0.7500   -1.2990    0.0000 C   0  0  0  0  0  0  0  0  0  0  0  0
    1.5000    0.0000    0.0000 C   0  0  0  0  0  0  0  0  0  0  0  0
    0.7500    1.2990    0.0000 C   0  0  0  0  0  0  0  0  0  0  0  0
   -0.7500    1.2990    0.0000 C   0  0  0  0  0  0  0  0  0  0  0  0
   -1.5000    0.0000    0.0000 C   0  0  0  0  0  0  0  0  0  0  0  0
   -0.7500   -1.2990    0.0000 C   0  0  0  0  0  0  0  0  0  0  0  0
    3.0000   -7.7942    0.0000 C   0  0  0  0  0  0  0  0  0  0  0  0
    3.7500   -9.0933    0.0000 C   0  0  0  0  0  0  0  0  0  0  0  0
    3.0000  -10.3923    0.0000 C   0  0  0  0  0  0  0  0  0  0  0  0
    3.7500  -11.6913    0.0000 C   0  0  0  0  0  0  0  0  0  0  0  0
    5.2500  -11.6913    0.0000 C   0  0  0  0  0  0  0  0  0  0  0  0
    6.0000  -10.3923    0.0000 C   0  0  0  0  0  0  0  0  0  0  0  0
    5.2500   -9.0933    0.0000 C   0  0  0  0  0  0  0  0  0  0  0  0
    0.7500  -14.2894    0.0000 N   0  0  0  0  0  0  0  0  0  0  0  0
    1.5000  -15.5885    0.0000 O   0  0  0  0  0  0  0  0  0  0  0  0
  1  2  2  0
  2  3  1  0
  3  4  1  0
  4  5  1  0
  5  6  1  0
  6  7  1  0
  7  8  1  0
  8  9  1  0
  9 10  2  0
  9 11  1  0
 11 12  1  0
 12 13  2  0
 13 14  1  0
 14 15  2  0
 15 16  1  0
 16 17  2  0
  6 18  1  0
 18 19  1  0
 19 20  2  0
 20 21  1  0
 21 22  2  0
 22 23  1  0
 23 24  2  0
  2 25  1  0
 25 26  1  0
 17 12  1  0
 24 19  1  0
M  END
>  <molecule_chembl_id>  (243) 
CHEMBL4102833

>  <canonical_smiles>  (243) 
O=C(CCCC(CCC(=O)Nc1ccccc1)Cc1ccccc1)NO

>  <pchembl_value_mean>  (243) 
5.46

>  <document_chembl_id>  (243) 
CHEMBL4052702

$$$$

     RDKit          2D

 39 42  0  0  0  0  0  0  0  0999 V2000
    3.7500   -1.2990    0.0000 C   0  0  0  0  0  0  0  0  0  0  0  0
    3.0000    0.0000    0.0000 N   0  0  0  0  0  0  0  0  0  0  0  0
    3.7500    1.2990    0.0000 C   0  0  0  0  0  0  0  0  0  0  0  0
    1.5000    0.0000    0.0000 C   0  0  0  0  0  0  0  0  0  0  0  0
    0.7500   -1.2990    0.0000 C   0  0  0  0  0  0  0  0  0  0  0  0
   -0.7500   -1.2990    0.0000 C   0  0  0  0  0  0  0  0  0  0  0  0
   -1.5000    0.0000    0.0000 C   0  0  0  0  0  0  0  0  0  0  0  0
   -0.7500    1.2990    0.0000 C   0  0  0  0  0  0  0  0  0  0  0  0
   -1.5000    2.5981    0.0000 C   0  0  0  0  0  0  0  0  0  0  0  0
   -3.0000    2.5981    0.0000 S   0  0  0  0  0  0  0  0  0  0  0  0
   -3.0000    4.0981    0.0000 O   0  0  0  0  0  0  0  0  0  0  0  0
   -3.0000    1.0981    0.0000 O   0  0  0  0  0  0  0  0  0  0  0  0
   -4.5000    2.5981    0.0000 N   0  0  0  0  0  0  0  0  0  0  0  0
   -5.2500    3.8971    0.0000 C   0  0  0  0  0  0  0  0  0  0  0  0
   -6.7500    3.8971    0.0000 C   0  0  0  0  0  0  0  0  0  0  0  0
   -7.5000    2.5981    0.0000 O   0  0  0  0  0  0  0  0  0  0  0  0
   -7.5000    5.1962    0.0000 N   0  0  0  0  0  0  0  0  0  0  0  0
   -9.0000    5.1962    0.0000 C   0  0  0  0  0  0  0  0  0  0  0  0
   -9.7500    6.4952    0.0000 C   0  0  0  0  0  0  0  0  0  0  0  0
   -9.0000    7.7942    0.0000 C   0  0  0  0  0  0  0  0  0  0  0  0
   -9.7500    9.0933    0.0000 C   0  0  0  0  0  0  0  0  0  0  0  0
  -11.2500    9.0933    0.0000 C   0  0  0  0  0  0  0  0  0  0  0  0
  -12.0000    7.7942    0.0000 C   0  0  0  0  0  0  0  0  0  0  0  0
  -11.2500    6.4952    0.0000 C   0  0  0  0  0  0  0  0  0  0  0  0
   -5.2500    1.2990    0.0000 C   0  0  0  0  0  0  0  0  0  0  0  0
   -4.5000    0.0000    0.0000 C   0  0  0  0  0  0  0  0  0  0  0  0
   -5.2500   -1.2990    0.0000 C   0  0  0  0  0  0  0  0  0  0  0  0
   -4.5000   -2.5981    0.0000 C   0  0  0  0  0  0  0  0  0  0  0  0
   -3.0000   -2.5981    0.0000 C   0  0  0  0  0  0  0  0  0  0  0  0
   -2.2500   -3.8971    0.0000 C   0  0  0  0  0  0  0  0  0  0  0  0
   -0.7500   -3.8971    0.0000 O   0  0  0  0  0  0  0  0  0  0  0  0
   -3.0000   -5.1962    0.0000 N   0  0  0  0  0  0  0  0  0  0  0  0
   -2.2500   -6.4952    0.0000 O   0  0  0  0  0  0  0  0  0  0  0  0
   -2.2500   -1.2990    0.0000 C   0  0  0  0  0  0  0  0  0  0  0  0
   -3.0000   -0.0000    0.0000 C   0  0  0  0  0  0  0  0  0  0  0  0
   -0.7500    3.8971    0.0000 C   0  0  0  0  0  0  0  0  0  0  0  0
    0.7500    3.8971    0.0000 C   0  0  0  0  0  0  0  0  0  0  0  0
    1.5000    2.5981    0.0000 C   0  0  0  0  0  0  0  0  0  0  0  0
    0.7500    1.2990    0.0000 C   0  0  0  0  0  0  0  0  0  0  0  0
  1  2  1  0
  2  3  1  0
  2  4  1  0
  4  5  2  0
  5  6  1  0
  6  7  2  0
  7  8  1  0
  8  9  2  0
  9 10  1  0
 10 11  2  0
 10 12  2  0
 10 13  1  0
 13 14  1  0
 14 15  1  0
 15 16  2  0
 15 17  1  0
 17 18  1  0
 18 19  1  0
 19 20  2  0
 20 21  1  0
 21 22  2  0
 22 23  1  0
 23 24  2  0
 13 25  1  0
 25 26  1  0
 26 27  2  0
 27 28  1  0
 28 29  2  0
 29 30  1  0
 30 31  2  0
 30 32  1  0
 32 33  1  0
 29 34  1  0
 34 35  2  0
  9 36  1  0
 36 37  2  0
 37 38  1  0
 38 39  2  0
 39  4  1  0
 39  8  1  0
 24 19  1  0
 35 26  1  0
M  END
>  <molecule_chembl_id>  (244) 
CHEMBL4457698

>  <canonical_smiles>  (244) 
CN(C)c1cccc2c(S(=O)(=O)N(CC(=O)NCc3ccccc3)Cc3ccc(C(=O)NO)cc3)cccc12

>  <pchembl_value_mean>  (244) 
5.46

>  <document_chembl_id>  (244) 
CHEMBL4396931

$$$$

     RDKit          2D

 26 27  0  0  0  0  0  0  0  0999 V2000
   -3.7500   -6.4952    0.0000 C   0  0  0  0  0  0  0  0  0  0  0  0
   -3.0000   -5.1962    0.0000 O   0  0  0  0  0  0  0  0  0  0  0  0
   -1.5000   -5.1962    0.0000 C   0  0  0  0  0  0  0  0  0  0  0  0
   -0.7500   -6.4952    0.0000 O   0  0  0  0  0  0  0  0  0  0  0  0
   -0.7500   -3.8971    0.0000 C   0  0  0  0  0  0  0  0  0  0  0  0
    0.7500   -3.8971    0.0000 C   0  0  0  0  0  0  0  0  0  0  0  0
    1.5000   -2.5981    0.0000 C   0  0  0  0  0  0  0  0  0  0  0  0
    0.7500   -1.2990    0.0000 C   0  0  0  0  0  0  0  0  0  0  0  0
    1.5000    0.0000    0.0000 C   0  0  0  0  0  0  0  0  0  0  0  0
    0.7500    1.2990    0.0000 C   0  0  0  0  0  0  0  0  0  0  0  0
   -0.7500    1.2990    0.0000 C   0  0  0  0  0  0  0  0  0  0  0  0
   -1.5000    0.0000    0.0000 C   0  0  0  0  0  0  0  0  0  0  0  0
   -0.7500   -1.2990    0.0000 C   0  0  0  0  0  0  0  0  0  0  0  0
   -1.5000   -2.5981    0.0000 C   0  0  0  0  0  0  0  0  0  0  0  0
   -3.0000   -2.5981    0.0000 O   0  0  0  0  0  0  0  0  0  0  0  0
   -3.7500   -1.2990    0.0000 C   0  0  0  0  0  0  0  0  0  0  0  0
   -5.2500   -1.2990    0.0000 C   0  0  0  0  0  0  0  0  0  0  0  0
   -6.0000   -0.0000    0.0000 C   0  0  0  0  0  0  0  0  0  0  0  0
   -7.5000   -0.0000    0.0000 C   0  0  0  0  0  0  0  0  0  0  0  0
   -8.2500    1.2990    0.0000 C   0  0  0  0  0  0  0  0  0  0  0  0
   -9.7500    1.2990    0.0000 C   0  0  0  0  0  0  0  0  0  0  0  0
  -10.5000    2.5981    0.0000 C   0  0  0  0  0  0  0  0  0  0  0  0
  -12.0000    2.5981    0.0000 C   0  0  0  0  0  0  0  0  0  0  0  0
  -12.7500    1.2990    0.0000 O   0  0  0  0  0  0  0  0  0  0  0  0
  -12.7500    3.8971    0.0000 N   0  0  0  0  0  0  0  0  0  0  0  0
  -14.2500    3.8971    0.0000 O   0  0  0  0  0  0  0  0  0  0  0  0
  1  2  1  0
  2  3  1  0
  3  4  2  0
  3  5  1  0
  5  6  2  0
  6  7  1  0
  7  8  2  0
  8  9  1  0
  9 10  2  0
 10 11  1  0
 11 12  2  0
 12 13  1  0
 13 14  2  0
 14 15  1  0
 15 16  1  0
 16 17  1  0
 17 18  1  0
 18 19  1  0
 19 20  1  0
 20 21  1  0
 21 22  1  0
 22 23  1  0
 23 24  2  0
 23 25  1  0
 25 26  1  0
 14  5  1  0
 13  8  1  0
M  END
>  <molecule_chembl_id>  (245) 
CHEMBL4563988

>  <canonical_smiles>  (245) 
COC(=O)c1ccc2ccccc2c1OCCCCCCCC(=O)NO

>  <pchembl_value_mean>  (245) 
5.47

>  <document_chembl_id>  (245) 
CHEMBL4396900

$$$$

     RDKit          2D

 31 34  0  0  0  0  0  0  0  0999 V2000
    9.0866   10.8673    0.0000 N   0  0  0  0  0  0  0  0  0  0  0  0
   10.2013    9.8636    0.0000 C   0  0  0  0  0  0  0  0  0  0  0  0
   11.6279   10.3271    0.0000 C   0  0  0  0  0  0  0  0  0  0  0  0
   12.7426    9.3234    0.0000 C   0  0  0  0  0  0  0  0  0  0  0  0
   12.4307    7.8562    0.0000 C   0  0  0  0  0  0  0  0  0  0  0  0
   11.0041    7.3926    0.0000 C   0  0  0  0  0  0  0  0  0  0  0  0
    9.8894    8.3963    0.0000 C   0  0  0  0  0  0  0  0  0  0  0  0
    8.4628    7.9328    0.0000 N   0  0  0  0  0  0  0  0  0  0  0  0
    7.3481    8.9365    0.0000 C   0  0  0  0  0  0  0  0  0  0  0  0
    7.6600   10.4037    0.0000 O   0  0  0  0  0  0  0  0  0  0  0  0
    5.9215    8.4730    0.0000 C   0  0  0  0  0  0  0  0  0  0  0  0
    4.8068    9.4767    0.0000 C   0  0  0  0  0  0  0  0  0  0  0  0
    3.3802    9.0132    0.0000 C   0  0  0  0  0  0  0  0  0  0  0  0
    3.0684    7.5459    0.0000 C   0  0  0  0  0  0  0  0  0  0  0  0
    1.6418    7.0824    0.0000 C   0  0  0  0  0  0  0  0  0  0  0  0
    1.3299    5.6152    0.0000 N   0  0  0  0  0  0  0  0  0  0  0  0
    2.4446    4.6115    0.0000 C   0  0  0  0  0  0  0  0  0  0  0  0
    3.8712    5.0750    0.0000 C   0  0  0  0  0  0  0  0  0  0  0  0
    4.9859    4.0713    0.0000 O   0  0  0  0  0  0  0  0  0  0  0  0
   -0.0967    5.1517    0.0000 C   0  0  0  0  0  0  0  0  0  0  0  0
   -0.4086    3.6844    0.0000 C   0  0  0  0  0  0  0  0  0  0  0  0
   -1.8351    3.2209    0.0000 C   0  0  0  0  0  0  0  0  0  0  0  0
   -2.1470    1.7537    0.0000 C   0  0  0  0  0  0  0  0  0  0  0  0
   -1.0323    0.7500    0.0000 C   0  0  0  0  0  0  0  0  0  0  0  0
    0.3943    1.2135    0.0000 C   0  0  0  0  0  0  0  0  0  0  0  0
    0.7062    2.6807    0.0000 C   0  0  0  0  0  0  0  0  0  0  0  0
    1.2760    0.0000    0.0000 O   0  0  0  0  0  0  0  0  0  0  0  0
    0.3943   -1.2135    0.0000 C   0  0  0  0  0  0  0  0  0  0  0  0
   -1.0323   -0.7500    0.0000 O   0  0  0  0  0  0  0  0  0  0  0  0
    4.1831    6.5422    0.0000 C   0  0  0  0  0  0  0  0  0  0  0  0
    5.6097    7.0058    0.0000 C   0  0  0  0  0  0  0  0  0  0  0  0
  1  2  1  0
  2  3  2  0
  3  4  1  0
  4  5  2  0
  5  6  1  0
  6  7  2  0
  7  8  1  0
  8  9  1  0
  9 10  2  0
  9 11  1  0
 11 12  2  0
 12 13  1  0
 13 14  2  0
 14 15  1  0
 15 16  1  0
 16 17  1  0
 17 18  1  0
 18 19  1  0
 16 20  1  0
 20 21  1  0
 21 22  2  0
 22 23  1  0
 23 24  2  0
 24 25  1  0
 25 26  2  0
 25 27  1  0
 27 28  1  0
 28 29  1  0
 14 30  1  0
 30 31  2  0
  7  2  1  0
 31 11  1  0
 26 21  1  0
 29 24  1  0
M  END
>  <molecule_chembl_id>  (246) 
CHEMBL407420

>  <canonical_smiles>  (246) 
Nc1ccccc1NC(=O)c1ccc(CN(CCO)Cc2ccc3c(c2)OCO3)cc1

>  <pchembl_value_mean>  (246) 
5.47

>  <document_chembl_id>  (246) 
CHEMBL1955769

$$$$

     RDKit          2D

 29 32  0  0  0  0  0  0  0  0999 V2000
    6.3579  -11.0239    0.0000 C   0  0  0  0  0  0  0  0  0  0  0  0
    6.2011   -9.5322    0.0000 C   0  0  0  0  0  0  0  0  0  0  0  0
    4.8308   -8.9221    0.0000 C   0  0  0  0  0  0  0  0  0  0  0  0
    4.6740   -7.4303    0.0000 C   0  0  0  0  0  0  0  0  0  0  0  0
    5.8875   -6.5486    0.0000 N   0  0  0  0  0  0  0  0  0  0  0  0
    7.2578   -7.1587    0.0000 C   0  0  0  0  0  0  0  0  0  0  0  0
    7.4146   -8.6505    0.0000 O   0  0  0  0  0  0  0  0  0  0  0  0
    8.4713   -6.2770    0.0000 C   0  0  0  0  0  0  0  0  0  0  0  0
    9.9529   -6.5117    0.0000 C   0  0  0  0  0  0  0  0  0  0  0  0
   10.1875   -5.0301    0.0000 N   0  0  0  0  0  0  0  0  0  0  0  0
   11.4010   -4.1485    0.0000 C   0  0  0  0  0  0  0  0  0  0  0  0
    8.7060   -4.7955    0.0000 C   0  0  0  0  0  0  0  0  0  0  0  0
    3.3037   -6.8202    0.0000 C   0  0  0  0  0  0  0  0  0  0  0  0
    2.0046   -7.5702    0.0000 N   0  0  0  0  0  0  0  0  0  0  0  0
    0.8899   -6.5665    0.0000 C   0  0  0  0  0  0  0  0  0  0  0  0
    1.5000   -5.1962    0.0000 C   0  0  0  0  0  0  0  0  0  0  0  0
    0.7500   -3.8971    0.0000 C   0  0  0  0  0  0  0  0  0  0  0  0
    1.5000   -2.5981    0.0000 C   0  0  0  0  0  0  0  0  0  0  0  0
    0.7500   -1.2990    0.0000 C   0  0  0  0  0  0  0  0  0  0  0  0
    1.5000    0.0000    0.0000 C   0  0  0  0  0  0  0  0  0  0  0  0
    0.7500    1.2990    0.0000 C   0  0  0  0  0  0  0  0  0  0  0  0
   -0.7500    1.2990    0.0000 C   0  0  0  0  0  0  0  0  0  0  0  0
   -1.5000    0.0000    0.0000 C   0  0  0  0  0  0  0  0  0  0  0  0
   -0.7500   -1.2990    0.0000 C   0  0  0  0  0  0  0  0  0  0  0  0
   -1.5000   -2.5981    0.0000 N   0  0  0  0  0  0  0  0  0  0  0  0
   -0.7500   -3.8971    0.0000 C   0  0  0  0  0  0  0  0  0  0  0  0
   -1.5000   -5.1962    0.0000 O   0  0  0  0  0  0  0  0  0  0  0  0
   -3.0000   -5.1962    0.0000 C   0  0  0  0  0  0  0  0  0  0  0  0
    2.9918   -5.3529    0.0000 N   0  0  0  0  0  0  0  0  0  0  0  0
  1  2  1  0
  2  3  1  0
  3  4  1  0
  4  5  1  0
  5  6  1  0
  6  7  2  0
  6  8  1  0
  8  9  1  0
  9 10  1  0
 10 11  1  0
 10 12  1  0
  4 13  1  0
 13 14  2  0
 14 15  1  0
 15 16  2  0
 16 17  1  0
 17 18  2  0
 18 19  1  0
 19 20  2  0
 20 21  1  0
 21 22  2  0
 22 23  1  0
 23 24  2  0
 24 25  1  0
 25 26  2  0
 26 27  1  0
 27 28  1  0
 16 29  1  0
 12  8  1  0
 29 13  1  0
 26 17  1  0
 24 19  1  0
M  END
>  <molecule_chembl_id>  (247) 
CHEMBL4862719

>  <canonical_smiles>  (247) 
CCCC(NC(=O)C1CN(C)C1)c1ncc(-c2cc3ccccc3nc2OC)[nH]1

>  <pchembl_value_mean>  (247) 
5.47

>  <document_chembl_id>  (247) 
CHEMBL4814059

$$$$

     RDKit          2D

 47 50  0  0  0  0  0  0  0  0999 V2000
    4.7302   -3.7586    0.0000 C   0  0  0  0  0  0  0  0  0  0  0  0
    3.3037   -4.2221    0.0000 C   0  0  0  0  0  0  0  0  0  0  0  0
    3.9138   -5.5924    0.0000 C   0  0  0  0  0  0  0  0  0  0  0  0
    2.9918   -2.7549    0.0000 C   0  0  0  0  0  0  0  0  0  0  0  0
    3.9955   -1.6402    0.0000 O   0  0  0  0  0  0  0  0  0  0  0  0
    1.5000   -2.5981    0.0000 N   0  0  0  0  0  0  0  0  0  0  0  0
    0.7500   -1.2990    0.0000 C   0  0  0  0  0  0  0  0  0  0  0  0
    1.5000    0.0000    0.0000 C   0  0  0  0  0  0  0  0  0  0  0  0
    0.7500    1.2990    0.0000 C   0  0  0  0  0  0  0  0  0  0  0  0
   -0.7500    1.2990    0.0000 C   0  0  0  0  0  0  0  0  0  0  0  0
   -1.5000    2.5981    0.0000 C   0  0  0  0  0  0  0  0  0  0  0  0
   -2.2500    3.8971    0.0000 N   0  0  0  0  0  0  0  0  0  0  0  0
   -1.5000    0.0000    0.0000 C   0  0  0  0  0  0  0  0  0  0  0  0
   -3.0000    0.0000    0.0000 C   0  0  0  0  0  0  0  0  0  0  0  0
   -4.5000    0.0000    0.0000 F   0  0  0  0  0  0  0  0  0  0  0  0
   -3.0000   -1.5000    0.0000 F   0  0  0  0  0  0  0  0  0  0  0  0
   -3.0000    1.5000    0.0000 F   0  0  0  0  0  0  0  0  0  0  0  0
   -0.7500   -1.2990    0.0000 C   0  0  0  0  0  0  0  0  0  0  0  0
    0.8899   -3.9684    0.0000 C   0  0  0  0  0  0  0  0  0  0  0  0
   -0.5773   -4.2803    0.0000 S   0  0  0  0  0  0  0  0  0  0  0  0
    2.0046   -4.9721    0.0000 N   0  0  0  0  0  0  0  0  0  0  0  0
    1.8478   -6.4639    0.0000 C   0  0  0  0  0  0  0  0  0  0  0  0
    0.4775   -7.0740    0.0000 C   0  0  0  0  0  0  0  0  0  0  0  0
    0.3207   -8.5658    0.0000 C   0  0  0  0  0  0  0  0  0  0  0  0
    1.5342   -9.4474    0.0000 C   0  0  0  0  0  0  0  0  0  0  0  0
    1.3774  -10.9392    0.0000 C   0  0  0  0  0  0  0  0  0  0  0  0
    2.5910  -11.8209    0.0000 O   0  0  0  0  0  0  0  0  0  0  0  0
    0.0071  -11.5493    0.0000 N   0  0  0  0  0  0  0  0  0  0  0  0
   -0.1497  -13.0411    0.0000 C   0  0  0  0  0  0  0  0  0  0  0  0
   -1.5200  -13.6512    0.0000 C   0  0  0  0  0  0  0  0  0  0  0  0
   -1.6768  -15.1430    0.0000 C   0  0  0  0  0  0  0  0  0  0  0  0
   -3.0471  -15.7531    0.0000 C   0  0  0  0  0  0  0  0  0  0  0  0
   -3.2039  -17.2449    0.0000 C   0  0  0  0  0  0  0  0  0  0  0  0
   -4.5742  -17.8550    0.0000 C   0  0  0  0  0  0  0  0  0  0  0  0
   -4.7310  -19.3468    0.0000 C   0  0  0  0  0  0  0  0  0  0  0  0
   -3.5175  -20.2285    0.0000 O   0  0  0  0  0  0  0  0  0  0  0  0
   -6.1013  -19.9569    0.0000 N   0  0  0  0  0  0  0  0  0  0  0  0
   -6.2581  -21.4487    0.0000 C   0  0  0  0  0  0  0  0  0  0  0  0
   -7.6284  -22.0588    0.0000 C   0  0  0  0  0  0  0  0  0  0  0  0
   -7.7852  -23.5505    0.0000 C   0  0  0  0  0  0  0  0  0  0  0  0
   -6.5717  -24.4322    0.0000 C   0  0  0  0  0  0  0  0  0  0  0  0
   -5.2014  -23.8221    0.0000 C   0  0  0  0  0  0  0  0  0  0  0  0
   -5.0446  -22.3303    0.0000 C   0  0  0  0  0  0  0  0  0  0  0  0
   -3.6743  -21.7202    0.0000 N   0  0  0  0  0  0  0  0  0  0  0  0
    2.9046   -8.8373    0.0000 C   0  0  0  0  0  0  0  0  0  0  0  0
    4.1181   -9.7190    0.0000 F   0  0  0  0  0  0  0  0  0  0  0  0
    3.0613   -7.3456    0.0000 C   0  0  0  0  0  0  0  0  0  0  0  0
  1  2  1  0
  2  3  1  0
  2  4  1  0
  4  5  2  0
  4  6  1  0
  6  7  1  0
  7  8  2  0
  8  9  1  0
  9 10  2  0
 10 11  1  0
 11 12  3  0
 10 13  1  0
 13 14  1  0
 14 15  1  0
 14 16  1  0
 14 17  1  0
 13 18  2  0
  6 19  1  0
 19 20  2  0
 19 21  1  0
 21 22  1  0
 22 23  2  0
 23 24  1  0
 24 25  2  0
 25 26  1  0
 26 27  2  0
 26 28  1  0
 28 29  1  0
 29 30  1  0
 30 31  1  0
 31 32  1  0
 32 33  1  0
 33 34  1  0
 34 35  1  0
 35 36  2  0
 35 37  1  0
 37 38  1  0
 38 39  2  0
 39 40  1  0
 40 41  2  0
 41 42  1  0
 42 43  2  0
 43 44  1  0
 25 45  1  0
 45 46  1  0
 45 47  2  0
 21  2  1  0
 47 22  1  0
 18  7  1  0
 43 38  1  0
M  END
>  <molecule_chembl_id>  (248) 
CHEMBL3948543

>  <canonical_smiles>  (248) 
CC1(C)C(=O)N(c2ccc(C#N)c(C(F)(F)F)c2)C(=S)N1c1ccc(C(=O)NCCCCCCC(=O)Nc2ccccc2N)c(F)c1

>  <pchembl_value_mean>  (248) 
5.47

>  <document_chembl_id>  (248) 
CHEMBL3862016

$$$$

     RDKit          2D

 38 38  0  0  0  0  0  0  0  0999 V2000
    6.0944   -1.2990    0.0000 C   0  0  0  0  0  0  0  0  0  0  0  0
    5.3444    0.0000    0.0000 C   0  0  0  0  0  0  0  0  0  0  0  0
    3.8444    0.0000    0.0000 C   0  0  0  0  0  0  0  0  0  0  0  0
    3.5517   -1.4712    0.0000 N   0  0  0  0  0  0  0  0  0  0  0  0
    2.7184   -2.7184    0.0000 C   0  0  0  0  0  0  0  0  0  0  0  0
    3.7790   -3.7790    0.0000 O   0  0  0  0  0  0  0  0  0  0  0  0
    1.4712   -3.5517    0.0000 C   0  0  0  0  0  0  0  0  0  0  0  0
    2.0452   -4.9376    0.0000 C   0  0  0  0  0  0  0  0  0  0  0  0
    1.1321   -6.1276    0.0000 S   0  0  0  0  0  0  0  0  0  0  0  0
    1.7061   -7.5134    0.0000 C   0  0  0  0  0  0  0  0  0  0  0  0
   -0.0000   -3.8444    0.0000 N   0  0  0  0  0  0  0  0  0  0  0  0
   -1.4712   -3.5517    0.0000 C   0  0  0  0  0  0  0  0  0  0  0  0
   -2.0452   -4.9376    0.0000 O   0  0  0  0  0  0  0  0  0  0  0  0
   -2.7184   -2.7184    0.0000 C   0  0  0  0  0  0  0  0  0  0  0  0
   -3.7790   -3.7790    0.0000 C   0  0  0  0  0  0  0  0  0  0  0  0
   -5.2279   -3.3908    0.0000 C   0  0  0  0  0  0  0  0  0  0  0  0
   -3.3908   -5.2279    0.0000 C   0  0  0  0  0  0  0  0  0  0  0  0
   -3.5517   -1.4712    0.0000 C   0  0  0  0  0  0  0  0  0  0  0  0
   -3.8444    0.0000    0.0000 C   0  0  0  0  0  0  0  0  0  0  0  0
   -5.3444    0.0000    0.0000 O   0  0  0  0  0  0  0  0  0  0  0  0
   -3.5517    1.4712    0.0000 C   0  0  0  0  0  0  0  0  0  0  0  0
   -2.7184    2.7184    0.0000 C   0  0  0  0  0  0  0  0  0  0  0  0
   -3.7790    3.7790    0.0000 C   0  0  0  0  0  0  0  0  0  0  0  0
   -3.3908    5.2279    0.0000 C   0  0  0  0  0  0  0  0  0  0  0  0
   -4.4515    6.2886    0.0000 C   0  0  0  0  0  0  0  0  0  0  0  0
   -4.0632    7.7375    0.0000 C   0  0  0  0  0  0  0  0  0  0  0  0
   -5.1239    8.7981    0.0000 S   0  0  0  0  0  0  0  0  0  0  0  0
   -4.7357   10.2470    0.0000 C   0  0  0  0  0  0  0  0  0  0  0  0
   -1.4712    3.5517    0.0000 O   0  0  0  0  0  0  0  0  0  0  0  0
    0.0000    3.8444    0.0000 C   0  0  0  0  0  0  0  0  0  0  0  0
    0.0000    5.3444    0.0000 O   0  0  0  0  0  0  0  0  0  0  0  0
    1.4712    3.5517    0.0000 C   0  0  0  0  0  0  0  0  0  0  0  0
    2.0452    4.9376    0.0000 C   0  0  0  0  0  0  0  0  0  0  0  0
    3.5324    5.1333    0.0000 C   0  0  0  0  0  0  0  0  0  0  0  0
    1.1321    6.1276    0.0000 C   0  0  0  0  0  0  0  0  0  0  0  0
    2.7184    2.7184    0.0000 N   0  0  0  0  0  0  0  0  0  0  0  0
    3.5517    1.4712    0.0000 C   0  0  0  0  0  0  0  0  0  0  0  0
    4.9376    2.0452    0.0000 O   0  0  0  0  0  0  0  0  0  0  0  0
  1  2  1  0
  2  3  2  3
  3  4  1  0
  4  5  1  0
  5  6  2  0
  5  7  1  0
  7  8  1  0
  8  9  1  0
  9 10  1  0
  7 11  1  0
 11 12  1  0
 12 13  2  0
 12 14  1  0
 14 15  1  0
 15 16  1  0
 15 17  1  0
 14 18  1  0
 18 19  1  0
 19 20  2  0
 19 21  1  0
 21 22  1  0
 22 23  1  0
 23 24  2  3
 24 25  1  0
 25 26  1  0
 26 27  1  0
 27 28  1  0
 22 29  1  0
 29 30  1  0
 30 31  2  0
 30 32  1  0
 32 33  1  0
 33 34  1  0
 33 35  1  0
 32 36  1  0
 36 37  1  0
 37 38  2  0
 37  3  1  0
M  END
>  <molecule_chembl_id>  (249) 
CHEMBL2093007

>  <canonical_smiles>  (249) 
CC=C1NC(=O)C(CSC)NC(=O)C(C(C)C)CC(=O)CC(C=CCCSC)OC(=O)C(C(C)C)NC1=O

>  <pchembl_value_mean>  (249) 
5.48

>  <document_chembl_id>  (249) 
CHEMBL1145900

$$$$

     RDKit          2D

 33 36  0  0  0  0  0  0  0  0999 V2000
    3.7500  -11.6913    0.0000 N   0  0  0  0  0  0  0  0  0  0  0  0
    3.0000  -12.9904    0.0000 C   0  0  0  0  0  0  0  0  0  0  0  0
    3.7500  -14.2894    0.0000 C   0  0  0  0  0  0  0  0  0  0  0  0
    3.0000  -15.5885    0.0000 C   0  0  0  0  0  0  0  0  0  0  0  0
    1.5000  -15.5885    0.0000 C   0  0  0  0  0  0  0  0  0  0  0  0
    0.7500  -14.2894    0.0000 C   0  0  0  0  0  0  0  0  0  0  0  0
    1.5000  -12.9904    0.0000 C   0  0  0  0  0  0  0  0  0  0  0  0
    0.7500  -11.6913    0.0000 N   0  0  0  0  0  0  0  0  0  0  0  0
    1.5000  -10.3923    0.0000 C   0  0  0  0  0  0  0  0  0  0  0  0
    3.0000  -10.3923    0.0000 O   0  0  0  0  0  0  0  0  0  0  0  0
    0.7500   -9.0933    0.0000 C   0  0  0  0  0  0  0  0  0  0  0  0
    1.5000   -7.7942    0.0000 C   0  0  0  0  0  0  0  0  0  0  0  0
    0.7500   -6.4952    0.0000 C   0  0  0  0  0  0  0  0  0  0  0  0
    1.5000   -5.1962    0.0000 C   0  0  0  0  0  0  0  0  0  0  0  0
    0.7500   -3.8971    0.0000 C   0  0  0  0  0  0  0  0  0  0  0  0
   -0.7500   -3.8971    0.0000 O   0  0  0  0  0  0  0  0  0  0  0  0
    1.5000   -2.5981    0.0000 N   0  0  0  0  0  0  0  0  0  0  0  0
    0.7500   -1.2990    0.0000 C   0  0  0  0  0  0  0  0  0  0  0  0
    1.5000    0.0000    0.0000 C   0  0  0  0  0  0  0  0  0  0  0  0
    0.7500    1.2990    0.0000 C   0  0  0  0  0  0  0  0  0  0  0  0
   -0.7500    1.2990    0.0000 C   0  0  0  0  0  0  0  0  0  0  0  0
   -1.5000    0.0000    0.0000 C   0  0  0  0  0  0  0  0  0  0  0  0
   -0.7500   -1.2990    0.0000 C   0  0  0  0  0  0  0  0  0  0  0  0
   -2.9672    0.3119    0.0000 C   0  0  0  0  0  0  0  0  0  0  0  0
   -4.0819   -0.6918    0.0000 C   0  0  0  0  0  0  0  0  0  0  0  0
   -5.5085   -0.2283    0.0000 C   0  0  0  0  0  0  0  0  0  0  0  0
   -6.7220   -1.1100    0.0000 C   0  0  0  0  0  0  0  0  0  0  0  0
   -7.9356   -0.2283    0.0000 C   0  0  0  0  0  0  0  0  0  0  0  0
   -7.4720    1.1983    0.0000 C   0  0  0  0  0  0  0  0  0  0  0  0
   -5.9720    1.1983    0.0000 N   0  0  0  0  0  0  0  0  0  0  0  0
   -3.1240    1.8037    0.0000 C   0  0  0  0  0  0  0  0  0  0  0  0
   -4.4231    2.5537    0.0000 O   0  0  0  0  0  0  0  0  0  0  0  0
   -1.7537    2.4138    0.0000 N   0  0  0  0  0  0  0  0  0  0  0  0
  1  2  1  0
  2  3  2  0
  3  4  1  0
  4  5  2  0
  5  6  1  0
  6  7  2  0
  7  8  1  0
  8  9  1  0
  9 10  2  0
  9 11  1  0
 11 12  1  0
 12 13  1  0
 13 14  1  0
 14 15  1  0
 15 16  2  0
 15 17  1  0
 17 18  1  0
 18 19  2  0
 19 20  1  0
 20 21  2  0
 21 22  1  0
 22 23  2  0
 22 24  1  0
 24 25  2  3
 25 26  1  0
 26 27  2  0
 27 28  1  0
 28 29  2  0
 29 30  1  0
 24 31  1  0
 31 32  2  0
 31 33  1  0
  7  2  1  0
 23 18  1  0
 30 26  1  0
 33 21  1  0
M  END
>  <molecule_chembl_id>  (250) 
CHEMBL3621297

>  <canonical_smiles>  (250) 
Nc1ccccc1NC(=O)CCCCC(=O)Nc1ccc2c(c1)C(=Cc1ccc[nH]1)C(=O)N2

>  <pchembl_value_mean>  (250) 
5.48

>  <document_chembl_id>  (250) 
CHEMBL3621077

$$$$

     RDKit          2D

 45 48  0  0  0  0  0  0  0  0999 V2000
    4.7302   -3.7586    0.0000 C   0  0  0  0  0  0  0  0  0  0  0  0
    3.3037   -4.2221    0.0000 C   0  0  0  0  0  0  0  0  0  0  0  0
    3.9138   -5.5924    0.0000 C   0  0  0  0  0  0  0  0  0  0  0  0
    2.9918   -2.7549    0.0000 C   0  0  0  0  0  0  0  0  0  0  0  0
    3.9955   -1.6402    0.0000 O   0  0  0  0  0  0  0  0  0  0  0  0
    1.5000   -2.5981    0.0000 N   0  0  0  0  0  0  0  0  0  0  0  0
    0.7500   -1.2990    0.0000 C   0  0  0  0  0  0  0  0  0  0  0  0
    1.5000    0.0000    0.0000 C   0  0  0  0  0  0  0  0  0  0  0  0
    0.7500    1.2990    0.0000 C   0  0  0  0  0  0  0  0  0  0  0  0
   -0.7500    1.2990    0.0000 C   0  0  0  0  0  0  0  0  0  0  0  0
   -1.5000    2.5981    0.0000 C   0  0  0  0  0  0  0  0  0  0  0  0
   -2.2500    3.8971    0.0000 N   0  0  0  0  0  0  0  0  0  0  0  0
   -1.5000    0.0000    0.0000 C   0  0  0  0  0  0  0  0  0  0  0  0
   -3.0000    0.0000    0.0000 C   0  0  0  0  0  0  0  0  0  0  0  0
   -4.5000    0.0000    0.0000 F   0  0  0  0  0  0  0  0  0  0  0  0
   -3.0000   -1.5000    0.0000 F   0  0  0  0  0  0  0  0  0  0  0  0
   -3.0000    1.5000    0.0000 F   0  0  0  0  0  0  0  0  0  0  0  0
   -0.7500   -1.2990    0.0000 C   0  0  0  0  0  0  0  0  0  0  0  0
    0.8899   -3.9684    0.0000 C   0  0  0  0  0  0  0  0  0  0  0  0
   -0.5773   -4.2803    0.0000 S   0  0  0  0  0  0  0  0  0  0  0  0
    2.0046   -4.9721    0.0000 N   0  0  0  0  0  0  0  0  0  0  0  0
    1.8478   -6.4639    0.0000 C   0  0  0  0  0  0  0  0  0  0  0  0
    0.4775   -7.0740    0.0000 C   0  0  0  0  0  0  0  0  0  0  0  0
    0.3207   -8.5658    0.0000 C   0  0  0  0  0  0  0  0  0  0  0  0
    1.5342   -9.4474    0.0000 C   0  0  0  0  0  0  0  0  0  0  0  0
    1.3774  -10.9392    0.0000 C   0  0  0  0  0  0  0  0  0  0  0  0
    2.5910  -11.8209    0.0000 O   0  0  0  0  0  0  0  0  0  0  0  0
    0.0071  -11.5493    0.0000 N   0  0  0  0  0  0  0  0  0  0  0  0
   -0.1497  -13.0411    0.0000 C   0  0  0  0  0  0  0  0  0  0  0  0
   -1.5200  -13.6512    0.0000 C   0  0  0  0  0  0  0  0  0  0  0  0
   -1.6768  -15.1430    0.0000 C   0  0  0  0  0  0  0  0  0  0  0  0
   -3.0471  -15.7531    0.0000 C   0  0  0  0  0  0  0  0  0  0  0  0
   -3.2039  -17.2449    0.0000 C   0  0  0  0  0  0  0  0  0  0  0  0
   -4.5742  -17.8550    0.0000 C   0  0  0  0  0  0  0  0  0  0  0  0
   -4.7310  -19.3468    0.0000 N   0  0  0  0  0  0  0  0  0  0  0  0
   -6.1013  -19.9569    0.0000 C   0  0  0  0  0  0  0  0  0  0  0  0
   -6.2581  -21.4487    0.0000 C   0  0  0  0  0  0  0  0  0  0  0  0
   -5.0446  -22.3303    0.0000 C   0  0  0  0  0  0  0  0  0  0  0  0
   -3.6743  -21.7202    0.0000 C   0  0  0  0  0  0  0  0  0  0  0  0
   -2.4607  -22.6019    0.0000 O   0  0  0  0  0  0  0  0  0  0  0  0
   -3.5175  -20.2285    0.0000 C   0  0  0  0  0  0  0  0  0  0  0  0
   -2.1472  -19.6183    0.0000 S   0  0  0  0  0  0  0  0  0  0  0  0
    2.9046   -8.8373    0.0000 C   0  0  0  0  0  0  0  0  0  0  0  0
    4.1181   -9.7190    0.0000 F   0  0  0  0  0  0  0  0  0  0  0  0
    3.0613   -7.3456    0.0000 C   0  0  0  0  0  0  0  0  0  0  0  0
  1  2  1  0
  2  3  1  0
  2  4  1  0
  4  5  2  0
  4  6  1  0
  6  7  1  0
  7  8  2  0
  8  9  1  0
  9 10  2  0
 10 11  1  0
 11 12  3  0
 10 13  1  0
 13 14  1  0
 14 15  1  0
 14 16  1  0
 14 17  1  0
 13 18  2  0
  6 19  1  0
 19 20  2  0
 19 21  1  0
 21 22  1  0
 22 23  2  0
 23 24  1  0
 24 25  2  0
 25 26  1  0
 26 27  2  0
 26 28  1  0
 28 29  1  0
 29 30  1  0
 30 31  1  0
 31 32  1  0
 32 33  1  0
 33 34  1  0
 34 35  1  0
 35 36  1  0
 36 37  2  0
 37 38  1  0
 38 39  2  0
 39 40  1  0
 39 41  1  0
 41 42  2  0
 25 43  1  0
 43 44  1  0
 43 45  2  0
 21  2  1  0
 45 22  1  0
 18  7  1  0
 41 35  1  0
M  END
>  <molecule_chembl_id>  (251) 
CHEMBL3921621

>  <canonical_smiles>  (251) 
CC1(C)C(=O)N(c2ccc(C#N)c(C(F)(F)F)c2)C(=S)N1c1ccc(C(=O)NCCCCCCn2cccc(O)c2=S)c(F)c1

>  <pchembl_value_mean>  (251) 
5.48

>  <document_chembl_id>  (251) 
CHEMBL3862016

$$$$

     RDKit          2D

 32 34  0  0  0  0  0  0  0  0999 V2000
    4.4679    6.4122    0.0000 C   0  0  0  0  0  0  0  0  0  0  0  0
    3.1788    7.1791    0.0000 C   0  0  0  0  0  0  0  0  0  0  0  0
    3.1984    8.6790    0.0000 C   0  0  0  0  0  0  0  0  0  0  0  0
    1.8701    6.4462    0.0000 C   0  0  0  0  0  0  0  0  0  0  0  0
    2.3336    5.0196    0.0000 N   0  0  0  0  0  0  0  0  0  0  0  0
    2.2159    3.5242    0.0000 C   0  0  0  0  0  0  0  0  0  0  0  0
    3.6596    3.1170    0.0000 O   0  0  0  0  0  0  0  0  0  0  0  0
    1.5349    2.1877    0.0000 C   0  0  0  0  0  0  0  0  0  0  0  0
    0.3943    1.2135    0.0000 N   0  0  0  0  0  0  0  0  0  0  0  0
    1.2760    0.0000    0.0000 N   0  0  0  0  0  0  0  0  0  0  0  0
    0.3943   -1.2135    0.0000 N   0  0  0  0  0  0  0  0  0  0  0  0
   -1.0323   -0.7500    0.0000 N   0  0  0  0  0  0  0  0  0  0  0  0
   -1.0323    0.7500    0.0000 C   0  0  0  0  0  0  0  0  0  0  0  0
   -2.5277    0.8677    0.0000 C   0  0  0  0  0  0  0  0  0  0  0  0
   -3.7749    0.0343    0.0000 C   0  0  0  0  0  0  0  0  0  0  0  0
   -4.9528    0.9630    0.0000 S   0  0  0  0  0  0  0  0  0  0  0  0
   -4.8383    2.6893    0.0000 C   0  0  0  0  0  0  0  0  0  0  0  0
   -3.8642    1.5487    0.0000 N   0  0  0  0  0  0  0  0  0  0  0  0
   -5.3019    4.1159    0.0000 C   0  0  0  0  0  0  0  0  0  0  0  0
   -5.1842    5.6112    0.0000 N   0  0  0  0  0  0  0  0  0  0  0  0
   -4.5032    6.9478    0.0000 C   0  0  0  0  0  0  0  0  0  0  0  0
   -5.6812    7.8764    0.0000 O   0  0  0  0  0  0  0  0  0  0  0  0
   -3.3626    7.9219    0.0000 C   0  0  0  0  0  0  0  0  0  0  0  0
   -1.9360    8.3855    0.0000 C   0  0  0  0  0  0  0  0  0  0  0  0
   -2.1123    9.8751    0.0000 C   0  0  0  0  0  0  0  0  0  0  0  0
   -0.9104   10.7725    0.0000 C   0  0  0  0  0  0  0  0  0  0  0  0
   -1.0867   12.2621    0.0000 C   0  0  0  0  0  0  0  0  0  0  0  0
    0.1151   13.1596    0.0000 C   0  0  0  0  0  0  0  0  0  0  0  0
   -0.0612   14.6492    0.0000 S   0  0  0  0  0  0  0  0  0  0  0  0
   -0.4406    8.2678    0.0000 O   0  0  0  0  0  0  0  0  0  0  0  0
    0.8959    7.5868    0.0000 C   0  0  0  0  0  0  0  0  0  0  0  0
    1.8245    8.7648    0.0000 O   0  0  0  0  0  0  0  0  0  0  0  0
  1  2  1  0
  2  3  1  0
  2  4  1  0
  4  5  1  0
  5  6  1  0
  6  7  2  0
  6  8  1  0
  8  9  1  0
  9 10  1  0
 10 11  2  0
 11 12  1  0
 12 13  2  0
 13 14  1  0
 14 15  2  0
 15 16  1  0
 16 17  1  0
 17 18  2  0
 17 19  1  0
 19 20  1  0
 20 21  1  0
 21 22  2  0
 21 23  1  0
 23 24  1  0
 24 25  1  0
 25 26  2  3
 26 27  1  0
 27 28  1  0
 28 29  1  0
 24 30  1  0
 30 31  1  0
 31 32  2  0
 31  4  1  0
 13  9  1  0
 18 14  1  0
M  END
>  <molecule_chembl_id>  (252) 
CHEMBL2323288

>  <canonical_smiles>  (252) 
CC(C)C1NC(=O)Cn2nnnc2-c2csc(n2)CNC(=O)CC(C=CCCS)OC1=O

>  <pchembl_value_mean>  (252) 
5.49

>  <document_chembl_id>  (252) 
CHEMBL2321647

$$$$

     RDKit          2D

 40 43  0  0  0  0  0  0  0  0999 V2000
    3.7500   -1.2990    0.0000 C   0  0  0  0  0  0  0  0  0  0  0  0
    3.0000    0.0000    0.0000 O   0  0  0  0  0  0  0  0  0  0  0  0
    1.5000    0.0000    0.0000 C   0  0  0  0  0  0  0  0  0  0  0  0
    0.7500   -1.2990    0.0000 C   0  0  0  0  0  0  0  0  0  0  0  0
   -0.7500   -1.2990    0.0000 C   0  0  0  0  0  0  0  0  0  0  0  0
   -1.5000    0.0000    0.0000 C   0  0  0  0  0  0  0  0  0  0  0  0
   -2.9672    0.3119    0.0000 C   0  0  0  0  0  0  0  0  0  0  0  0
   -4.0819   -0.6918    0.0000 C   0  0  0  0  0  0  0  0  0  0  0  0
   -3.7701   -2.1590    0.0000 O   0  0  0  0  0  0  0  0  0  0  0  0
   -5.5085   -0.2283    0.0000 C   0  0  0  0  0  0  0  0  0  0  0  0
   -5.8204    1.2389    0.0000 C   0  0  0  0  0  0  0  0  0  0  0  0
   -7.2470    1.7024    0.0000 C   0  0  0  0  0  0  0  0  0  0  0  0
   -7.5588    3.1697    0.0000 O   0  0  0  0  0  0  0  0  0  0  0  0
   -6.4441    4.1734    0.0000 C   0  0  0  0  0  0  0  0  0  0  0  0
   -8.3617    0.6987    0.0000 C   0  0  0  0  0  0  0  0  0  0  0  0
   -9.7883    1.1623    0.0000 O   0  0  0  0  0  0  0  0  0  0  0  0
  -10.9030    0.1586    0.0000 C   0  0  0  0  0  0  0  0  0  0  0  0
   -8.0498   -0.7685    0.0000 C   0  0  0  0  0  0  0  0  0  0  0  0
   -9.1645   -1.7722    0.0000 O   0  0  0  0  0  0  0  0  0  0  0  0
   -8.8527   -3.2394    0.0000 C   0  0  0  0  0  0  0  0  0  0  0  0
   -6.6232   -1.2320    0.0000 C   0  0  0  0  0  0  0  0  0  0  0  0
   -3.1240    1.8037    0.0000 C   0  0  0  0  0  0  0  0  0  0  0  0
   -1.7537    2.4138    0.0000 N   0  0  0  0  0  0  0  0  0  0  0  0
   -1.4418    3.8810    0.0000 S   0  0  0  0  0  0  0  0  0  0  0  0
    0.0254    3.5691    0.0000 O   0  0  0  0  0  0  0  0  0  0  0  0
   -2.9090    4.1928    0.0000 O   0  0  0  0  0  0  0  0  0  0  0  0
   -1.1300    5.3482    0.0000 C   0  0  0  0  0  0  0  0  0  0  0  0
    0.2966    5.8117    0.0000 C   0  0  0  0  0  0  0  0  0  0  0  0
    0.6085    7.2789    0.0000 C   0  0  0  0  0  0  0  0  0  0  0  0
   -0.5062    8.2826    0.0000 C   0  0  0  0  0  0  0  0  0  0  0  0
   -1.9328    7.8191    0.0000 C   0  0  0  0  0  0  0  0  0  0  0  0
   -3.0475    8.8228    0.0000 C   0  0  0  0  0  0  0  0  0  0  0  0
   -2.7357   10.2900    0.0000 C   0  0  0  0  0  0  0  0  0  0  0  0
   -3.8504   11.2937    0.0000 C   0  0  0  0  0  0  0  0  0  0  0  0
   -5.2770   10.8302    0.0000 O   0  0  0  0  0  0  0  0  0  0  0  0
   -3.5385   12.7610    0.0000 N   0  0  0  0  0  0  0  0  0  0  0  0
   -4.6532   13.7646    0.0000 O   0  0  0  0  0  0  0  0  0  0  0  0
   -2.2447    6.3519    0.0000 C   0  0  0  0  0  0  0  0  0  0  0  0
   -0.7500    1.2990    0.0000 C   0  0  0  0  0  0  0  0  0  0  0  0
    0.7500    1.2990    0.0000 C   0  0  0  0  0  0  0  0  0  0  0  0
  1  2  1  0
  2  3  1  0
  3  4  2  0
  4  5  1  0
  5  6  2  0
  6  7  1  0
  7  8  1  0
  8  9  2  0
  8 10  1  0
 10 11  2  0
 11 12  1  0
 12 13  1  0
 13 14  1  0
 12 15  2  0
 15 16  1  0
 16 17  1  0
 15 18  1  0
 18 19  1  0
 19 20  1  0
 18 21  2  0
  7 22  2  0
 22 23  1  0
 23 24  1  0
 24 25  2  0
 24 26  2  0
 24 27  1  0
 27 28  2  0
 28 29  1  0
 29 30  2  0
 30 31  1  0
 31 32  1  0
 32 33  2  3
 33 34  1  0
 34 35  2  0
 34 36  1  0
 36 37  1  0
 31 38  2  0
 23 39  1  0
 39 40  2  0
 40  3  1  0
 39  6  1  0
 21 10  1  0
 38 27  1  0
M  END
>  <molecule_chembl_id>  (253) 
CHEMBL4081822

>  <canonical_smiles>  (253) 
COc1ccc2c(C(=O)c3cc(OC)c(OC)c(OC)c3)cn(S(=O)(=O)c3cccc(C=CC(=O)NO)c3)c2c1

>  <pchembl_value_mean>  (253) 
5.49

>  <document_chembl_id>  (253) 
CHEMBL4041521

$$$$

     RDKit          2D

 30 33  0  0  0  0  0  0  0  0999 V2000
  -12.0000   -7.7942    0.0000 N   0  0  0  0  0  0  0  0  0  0  0  0
  -12.7500   -6.4952    0.0000 C   0  0  0  0  0  0  0  0  0  0  0  0
  -14.2500   -6.4952    0.0000 C   0  0  0  0  0  0  0  0  0  0  0  0
  -15.0000   -5.1962    0.0000 C   0  0  0  0  0  0  0  0  0  0  0  0
  -14.2500   -3.8971    0.0000 C   0  0  0  0  0  0  0  0  0  0  0  0
  -12.7500   -3.8971    0.0000 C   0  0  0  0  0  0  0  0  0  0  0  0
  -12.0000   -5.1962    0.0000 C   0  0  0  0  0  0  0  0  0  0  0  0
  -10.5000   -5.1962    0.0000 N   0  0  0  0  0  0  0  0  0  0  0  0
   -9.7500   -6.4952    0.0000 C   0  0  0  0  0  0  0  0  0  0  0  0
  -10.5000   -7.7942    0.0000 O   0  0  0  0  0  0  0  0  0  0  0  0
   -8.2500   -6.4952    0.0000 C   0  0  0  0  0  0  0  0  0  0  0  0
   -7.5000   -7.7942    0.0000 C   0  0  0  0  0  0  0  0  0  0  0  0
   -6.0000   -7.7942    0.0000 C   0  0  0  0  0  0  0  0  0  0  0  0
   -5.2500   -6.4952    0.0000 C   0  0  0  0  0  0  0  0  0  0  0  0
   -3.7500   -6.4952    0.0000 C   0  0  0  0  0  0  0  0  0  0  0  0
   -3.0000   -5.1962    0.0000 S   0  0  0  0  0  0  0  0  0  0  0  0
   -1.5000   -5.1962    0.0000 C   0  0  0  0  0  0  0  0  0  0  0  0
   -0.7500   -6.4952    0.0000 S   0  0  0  0  0  0  0  0  0  0  0  0
   -0.7500   -3.8971    0.0000 N   0  0  0  0  0  0  0  0  0  0  0  0
    0.7500   -3.8971    0.0000 C   0  0  0  0  0  0  0  0  0  0  0  0
    1.5000   -2.5981    0.0000 C   0  0  0  0  0  0  0  0  0  0  0  0
    0.7500   -1.2990    0.0000 C   0  0  0  0  0  0  0  0  0  0  0  0
    1.5000    0.0000    0.0000 C   0  0  0  0  0  0  0  0  0  0  0  0
    0.7500    1.2990    0.0000 C   0  0  0  0  0  0  0  0  0  0  0  0
   -0.7500    1.2990    0.0000 C   0  0  0  0  0  0  0  0  0  0  0  0
   -1.5000    0.0000    0.0000 C   0  0  0  0  0  0  0  0  0  0  0  0
   -0.7500   -1.2990    0.0000 C   0  0  0  0  0  0  0  0  0  0  0  0
   -1.5000   -2.5981    0.0000 C   0  0  0  0  0  0  0  0  0  0  0  0
   -6.0000   -5.1962    0.0000 C   0  0  0  0  0  0  0  0  0  0  0  0
   -7.5000   -5.1962    0.0000 C   0  0  0  0  0  0  0  0  0  0  0  0
  1  2  1  0
  2  3  2  0
  3  4  1  0
  4  5  2  0
  5  6  1  0
  6  7  2  0
  7  8  1  0
  8  9  1  0
  9 10  2  0
  9 11  1  0
 11 12  2  0
 12 13  1  0
 13 14  2  0
 14 15  1  0
 15 16  1  0
 16 17  1  0
 17 18  2  0
 17 19  1  0
 19 20  1  0
 20 21  1  0
 21 22  1  0
 22 23  2  0
 23 24  1  0
 24 25  2  0
 25 26  1  0
 26 27  2  0
 27 28  1  0
 14 29  1  0
 29 30  2  0
  7  2  1  0
 30 11  1  0
 28 19  1  0
 27 22  1  0
M  END
>  <molecule_chembl_id>  (254) 
CHEMBL4291295

>  <canonical_smiles>  (254) 
Nc1ccccc1NC(=O)c1ccc(CSC(=S)N2CCc3ccccc3C2)cc1

>  <pchembl_value_mean>  (254) 
5.49

>  <document_chembl_id>  (254) 
CHEMBL4251578

$$$$

     RDKit          2D

 27 29  0  0  0  0  0  0  0  0999 V2000
    3.0000    0.0000    0.0000 N   0  0  0  0  0  0  0  0  0  0  0  0
    1.5000    0.0000    0.0000 C   0  0  0  0  0  0  0  0  0  0  0  0
    0.7500   -1.2990    0.0000 C   0  0  0  0  0  0  0  0  0  0  0  0
   -0.7500   -1.2990    0.0000 C   0  0  0  0  0  0  0  0  0  0  0  0
   -1.5000   -2.5981    0.0000 F   0  0  0  0  0  0  0  0  0  0  0  0
   -1.5000    0.0000    0.0000 C   0  0  0  0  0  0  0  0  0  0  0  0
   -0.7500    1.2990    0.0000 C   0  0  0  0  0  0  0  0  0  0  0  0
    0.7500    1.2990    0.0000 C   0  0  0  0  0  0  0  0  0  0  0  0
    1.5000    2.5981    0.0000 N   0  0  0  0  0  0  0  0  0  0  0  0
    0.7500    3.8971    0.0000 C   0  0  0  0  0  0  0  0  0  0  0  0
   -0.7500    3.8971    0.0000 O   0  0  0  0  0  0  0  0  0  0  0  0
    1.5000    5.1962    0.0000 C   0  0  0  0  0  0  0  0  0  0  0  0
    3.0000    5.1962    0.0000 C   0  0  0  0  0  0  0  0  0  0  0  0
    3.7500    6.4952    0.0000 C   0  0  0  0  0  0  0  0  0  0  0  0
    3.0000    7.7942    0.0000 C   0  0  0  0  0  0  0  0  0  0  0  0
    3.7500    9.0933    0.0000 N   0  0  0  0  0  0  0  0  0  0  0  0
    5.2500    9.0933    0.0000 C   0  0  0  0  0  0  0  0  0  0  0  0
    6.0000    7.7942    0.0000 O   0  0  0  0  0  0  0  0  0  0  0  0
    6.0000   10.3923    0.0000 C   0  0  0  0  0  0  0  0  0  0  0  0
    7.5000   10.3923    0.0000 C   0  0  0  0  0  0  0  0  0  0  0  0
    8.2500    9.0933    0.0000 C   0  0  0  0  0  0  0  0  0  0  0  0
    9.7500    9.0933    0.0000 C   0  0  0  0  0  0  0  0  0  0  0  0
   10.5000   10.3923    0.0000 C   0  0  0  0  0  0  0  0  0  0  0  0
    9.7500   11.6913    0.0000 C   0  0  0  0  0  0  0  0  0  0  0  0
    8.2500   11.6913    0.0000 C   0  0  0  0  0  0  0  0  0  0  0  0
    1.5000    7.7942    0.0000 C   0  0  0  0  0  0  0  0  0  0  0  0
    0.7500    6.4952    0.0000 C   0  0  0  0  0  0  0  0  0  0  0  0
  1  2  1  0
  2  3  2  0
  3  4  1  0
  4  5  1  0
  4  6  2  0
  6  7  1  0
  7  8  2  0
  8  9  1  0
  9 10  1  0
 10 11  2  0
 10 12  1  0
 12 13  2  0
 13 14  1  0
 14 15  2  0
 15 16  1  0
 16 17  1  0
 17 18  2  0
 17 19  1  0
 19 20  1  0
 20 21  2  0
 21 22  1  0
 22 23  2  0
 23 24  1  0
 24 25  2  0
 15 26  1  0
 26 27  2  0
  8  2  1  0
 27 12  1  0
 25 20  1  0
M  END
>  <molecule_chembl_id>  (255) 
CHEMBL4167594

>  <canonical_smiles>  (255) 
Nc1cc(F)ccc1NC(=O)c1ccc(NC(=O)Cc2ccccc2)cc1

>  <pchembl_value_mean>  (255) 
5.5

>  <document_chembl_id>  (255) 
CHEMBL4130443

$$$$

     RDKit          2D

 26 29  0  0  0  0  0  0  0  0999 V2000
   -3.8536   -0.8075    0.0000 C   0  0  0  0  0  0  0  0  0  0  0  0
   -3.8536   -2.3075    0.0000 N   0  0  0  0  0  0  0  0  0  0  0  0
   -5.0672   -3.1891    0.0000 C   0  0  0  0  0  0  0  0  0  0  0  0
   -4.6036   -4.6157    0.0000 N   0  0  0  0  0  0  0  0  0  0  0  0
   -3.1036   -4.6157    0.0000 C   0  0  0  0  0  0  0  0  0  0  0  0
   -2.6401   -3.1891    0.0000 C   0  0  0  0  0  0  0  0  0  0  0  0
   -1.2135   -2.7256    0.0000 C   0  0  0  0  0  0  0  0  0  0  0  0
   -0.0000   -3.6073    0.0000 C   0  0  0  0  0  0  0  0  0  0  0  0
    1.2135   -2.7256    0.0000 N   0  0  0  0  0  0  0  0  0  0  0  0
    2.6401   -3.1891    0.0000 C   0  0  0  0  0  0  0  0  0  0  0  0
    2.9520   -4.6564    0.0000 C   0  0  0  0  0  0  0  0  0  0  0  0
    1.8373   -5.6601    0.0000 C   0  0  0  0  0  0  0  0  0  0  0  0
    2.1491   -7.1273    0.0000 C   0  0  0  0  0  0  0  0  0  0  0  0
    3.5757   -7.5908    0.0000 C   0  0  0  0  0  0  0  0  0  0  0  0
    3.8876   -9.0580    0.0000 C   0  0  0  0  0  0  0  0  0  0  0  0
    5.3142   -9.5216    0.0000 O   0  0  0  0  0  0  0  0  0  0  0  0
    2.7729  -10.0617    0.0000 N   0  0  0  0  0  0  0  0  0  0  0  0
    3.0847  -11.5290    0.0000 O   0  0  0  0  0  0  0  0  0  0  0  0
    4.6904   -6.5871    0.0000 C   0  0  0  0  0  0  0  0  0  0  0  0
    4.3786   -5.1199    0.0000 C   0  0  0  0  0  0  0  0  0  0  0  0
    0.7500   -1.2990    0.0000 C   0  0  0  0  0  0  0  0  0  0  0  0
    1.5000    0.0000    0.0000 C   0  0  0  0  0  0  0  0  0  0  0  0
    0.7500    1.2990    0.0000 C   0  0  0  0  0  0  0  0  0  0  0  0
   -0.7500    1.2990    0.0000 C   0  0  0  0  0  0  0  0  0  0  0  0
   -1.5000    0.0000    0.0000 C   0  0  0  0  0  0  0  0  0  0  0  0
   -0.7500   -1.2990    0.0000 C   0  0  0  0  0  0  0  0  0  0  0  0
  1  2  1  0
  2  3  1  0
  3  4  2  0
  4  5  1  0
  5  6  2  0
  6  7  1  0
  7  8  2  0
  8  9  1  0
  9 10  1  0
 10 11  1  0
 11 12  2  0
 12 13  1  0
 13 14  2  0
 14 15  1  0
 15 16  2  0
 15 17  1  0
 17 18  1  0
 14 19  1  0
 19 20  2  0
  9 21  1  0
 21 22  2  0
 22 23  1  0
 23 24  2  0
 24 25  1  0
 25 26  2  0
  6  2  1  0
 26  7  1  0
 20 11  1  0
 26 21  1  0
M  END
>  <molecule_chembl_id>  (256) 
CHEMBL4541796

>  <canonical_smiles>  (256) 
Cn1cncc1-c1cn(Cc2ccc(C(=O)NO)cc2)c2ccccc12

>  <pchembl_value_mean>  (256) 
5.5

>  <document_chembl_id>  (256) 
CHEMBL4385610

$$$$

     RDKit          2D

 29 32  0  0  0  0  0  0  0  0999 V2000
    4.1110   -5.4376    0.0000 C   0  0  0  0  0  0  0  0  0  0  0  0
    2.7406   -4.8275    0.0000 N   0  0  0  0  0  0  0  0  0  0  0  0
    1.5271   -5.7092    0.0000 C   0  0  0  0  0  0  0  0  0  0  0  0
    0.1568   -5.0991    0.0000 C   0  0  0  0  0  0  0  0  0  0  0  0
   -0.0000   -3.6073    0.0000 C   0  0  0  0  0  0  0  0  0  0  0  0
    1.2135   -2.7256    0.0000 C   0  0  0  0  0  0  0  0  0  0  0  0
    0.7500   -1.2990    0.0000 C   0  0  0  0  0  0  0  0  0  0  0  0
    1.5000    0.0000    0.0000 C   0  0  0  0  0  0  0  0  0  0  0  0
    0.7500    1.2990    0.0000 C   0  0  0  0  0  0  0  0  0  0  0  0
   -0.7500    1.2990    0.0000 C   0  0  0  0  0  0  0  0  0  0  0  0
   -1.5000    0.0000    0.0000 C   0  0  0  0  0  0  0  0  0  0  0  0
   -0.7500   -1.2990    0.0000 C   0  0  0  0  0  0  0  0  0  0  0  0
   -1.2135   -2.7256    0.0000 N   0  0  0  0  0  0  0  0  0  0  0  0
   -2.6401   -3.1891    0.0000 S   0  0  0  0  0  0  0  0  0  0  0  0
   -2.1766   -4.6157    0.0000 O   0  0  0  0  0  0  0  0  0  0  0  0
   -3.1036   -1.7626    0.0000 O   0  0  0  0  0  0  0  0  0  0  0  0
   -4.0667   -3.6527    0.0000 C   0  0  0  0  0  0  0  0  0  0  0  0
   -5.1814   -2.6490    0.0000 C   0  0  0  0  0  0  0  0  0  0  0  0
   -6.6080   -3.1125    0.0000 C   0  0  0  0  0  0  0  0  0  0  0  0
   -6.9199   -4.5797    0.0000 C   0  0  0  0  0  0  0  0  0  0  0  0
   -5.8051   -5.5834    0.0000 C   0  0  0  0  0  0  0  0  0  0  0  0
   -6.1170   -7.0506    0.0000 C   0  0  0  0  0  0  0  0  0  0  0  0
   -7.5436   -7.5142    0.0000 C   0  0  0  0  0  0  0  0  0  0  0  0
   -7.8555   -8.9814    0.0000 C   0  0  0  0  0  0  0  0  0  0  0  0
   -6.7407   -9.9851    0.0000 O   0  0  0  0  0  0  0  0  0  0  0  0
   -9.2821   -9.4449    0.0000 N   0  0  0  0  0  0  0  0  0  0  0  0
   -9.5939  -10.9121    0.0000 O   0  0  0  0  0  0  0  0  0  0  0  0
   -4.3786   -5.1199    0.0000 C   0  0  0  0  0  0  0  0  0  0  0  0
    2.5838   -3.3357    0.0000 C   0  0  0  0  0  0  0  0  0  0  0  0
  1  2  1  0
  2  3  1  0
  3  4  1  0
  4  5  1  0
  5  6  2  0
  6  7  1  0
  7  8  2  0
  8  9  1  0
  9 10  2  0
 10 11  1  0
 11 12  2  0
 12 13  1  0
 13 14  1  0
 14 15  2  0
 14 16  2  0
 14 17  1  0
 17 18  2  0
 18 19  1  0
 19 20  2  0
 20 21  1  0
 21 22  1  0
 22 23  2  3
 23 24  1  0
 24 25  2  0
 24 26  1  0
 26 27  1  0
 21 28  2  0
  6 29  1  0
 29  2  1  0
 13  5  1  0
 28 17  1  0
 12  7  1  0
M  END
>  <molecule_chembl_id>  (257) 
CHEMBL4062520

>  <canonical_smiles>  (257) 
CN1CCc2c(c3ccccc3n2S(=O)(=O)c2cccc(C=CC(=O)NO)c2)C1

>  <pchembl_value_mean>  (257) 
5.5

>  <document_chembl_id>  (257) 
CHEMBL3994606

$$$$

     RDKit          2D

 18 18  0  0  0  0  0  0  0  0999 V2000
   12.7500   -3.8971    0.0000 O   0  0  0  0  0  0  0  0  0  0  0  0
   12.0000   -5.1962    0.0000 C   0  0  0  0  0  0  0  0  0  0  0  0
   10.5000   -5.1962    0.0000 C   0  0  0  0  0  0  0  0  0  0  0  0
    9.7500   -3.8971    0.0000 C   0  0  0  0  0  0  0  0  0  0  0  0
    8.2500   -3.8971    0.0000 C   0  0  0  0  0  0  0  0  0  0  0  0
    7.5000   -2.5981    0.0000 C   0  0  0  0  0  0  0  0  0  0  0  0
    6.0000   -2.5981    0.0000 C   0  0  0  0  0  0  0  0  0  0  0  0
    5.2500   -1.2990    0.0000 C   0  0  0  0  0  0  0  0  0  0  0  0
    3.7500   -1.2990    0.0000 N   0  0  0  0  0  0  0  0  0  0  0  0
    3.0000    0.0000    0.0000 C   0  0  0  0  0  0  0  0  0  0  0  0
    1.5000    0.0000    0.0000 C   0  0  0  0  0  0  0  0  0  0  0  0
    0.7500   -1.2990    0.0000 C   0  0  0  0  0  0  0  0  0  0  0  0
   -0.7500   -1.2990    0.0000 C   0  0  0  0  0  0  0  0  0  0  0  0
   -1.5000    0.0000    0.0000 C   0  0  0  0  0  0  0  0  0  0  0  0
   -0.7500    1.2990    0.0000 C   0  0  0  0  0  0  0  0  0  0  0  0
    0.7500    1.2990    0.0000 C   0  0  0  0  0  0  0  0  0  0  0  0
   12.7500   -6.4952    0.0000 N   0  0  0  0  0  0  0  0  0  0  0  0
   14.2500   -6.4952    0.0000 O   0  0  0  0  0  0  0  0  0  0  0  0
  1  2  2  0
  2  3  1  0
  3  4  1  0
  4  5  1  0
  5  6  1  0
  6  7  1  0
  7  8  1  0
  8  9  1  0
  9 10  1  0
 10 11  1  0
 11 12  2  0
 12 13  1  0
 13 14  2  0
 14 15  1  0
 15 16  2  0
  2 17  1  0
 17 18  1  0
 16 11  1  0
M  END
>  <molecule_chembl_id>  (258) 
CHEMBL4208901

>  <canonical_smiles>  (258) 
O=C(CCCCCCNCc1ccccc1)NO

>  <pchembl_value_mean>  (258) 
5.51

>  <document_chembl_id>  (258) 
CHEMBL4190328

$$$$

     RDKit          2D

 39 41  0  0  0  0  0  0  0  0999 V2000
    3.7500   -1.2990    0.0000 C   0  0  0  0  0  0  0  0  0  0  0  0
    3.0000    0.0000    0.0000 N   0  0  0  0  0  0  0  0  0  0  0  0
    3.7500    1.2990    0.0000 C   0  0  0  0  0  0  0  0  0  0  0  0
    1.5000    0.0000    0.0000 C   0  0  0  0  0  0  0  0  0  0  0  0
    0.7500   -1.2990    0.0000 C   0  0  0  0  0  0  0  0  0  0  0  0
   -0.7500   -1.2990    0.0000 C   0  0  0  0  0  0  0  0  0  0  0  0
   -1.5000    0.0000    0.0000 C   0  0  0  0  0  0  0  0  0  0  0  0
   -3.0000    0.0000    0.0000 C   0  0  0  0  0  0  0  0  0  0  0  0
   -3.7500   -1.2990    0.0000 O   0  0  0  0  0  0  0  0  0  0  0  0
   -3.7500    1.2990    0.0000 N   0  0  0  0  0  0  0  0  0  0  0  0
   -5.2500    1.2990    0.0000 C   0  0  0  0  0  0  0  0  0  0  0  0
   -6.0000    2.5981    0.0000 C   0  0  0  0  0  0  0  0  0  0  0  0
   -7.5000    2.5981    0.0000 C   0  0  0  0  0  0  0  0  0  0  0  0
   -8.2500    3.8971    0.0000 C   0  0  0  0  0  0  0  0  0  0  0  0
   -9.7500    3.8971    0.0000 C   0  0  0  0  0  0  0  0  0  0  0  0
  -10.5000    5.1962    0.0000 C   0  0  0  0  0  0  0  0  0  0  0  0
   -9.7500    6.4952    0.0000 O   0  0  0  0  0  0  0  0  0  0  0  0
  -12.0000    5.1962    0.0000 N   0  0  0  0  0  0  0  0  0  0  0  0
  -12.7500    6.4952    0.0000 C   0  0  0  0  0  0  0  0  0  0  0  0
  -12.0000    7.7942    0.0000 C   0  0  0  0  0  0  0  0  0  0  0  0
  -12.7500    9.0933    0.0000 C   0  0  0  0  0  0  0  0  0  0  0  0
  -12.0000   10.3923    0.0000 F   0  0  0  0  0  0  0  0  0  0  0  0
  -14.2500    9.0933    0.0000 C   0  0  0  0  0  0  0  0  0  0  0  0
  -15.0000    7.7942    0.0000 C   0  0  0  0  0  0  0  0  0  0  0  0
  -14.2500    6.4952    0.0000 C   0  0  0  0  0  0  0  0  0  0  0  0
  -15.0000    5.1962    0.0000 N   0  0  0  0  0  0  0  0  0  0  0  0
   -3.0000    2.5981    0.0000 C   0  0  0  0  0  0  0  0  0  0  0  0
   -3.7500    3.8971    0.0000 C   0  0  0  0  0  0  0  0  0  0  0  0
   -5.2500    3.8971    0.0000 O   0  0  0  0  0  0  0  0  0  0  0  0
   -3.0000    5.1962    0.0000 N   0  0  0  0  0  0  0  0  0  0  0  0
   -3.7500    6.4952    0.0000 C   0  0  0  0  0  0  0  0  0  0  0  0
   -3.0000    7.7942    0.0000 C   0  0  0  0  0  0  0  0  0  0  0  0
   -1.5000    7.7942    0.0000 C   0  0  0  0  0  0  0  0  0  0  0  0
   -0.7500    9.0933    0.0000 C   0  0  0  0  0  0  0  0  0  0  0  0
   -1.5000   10.3923    0.0000 C   0  0  0  0  0  0  0  0  0  0  0  0
   -3.0000   10.3923    0.0000 C   0  0  0  0  0  0  0  0  0  0  0  0
   -3.7500    9.0933    0.0000 C   0  0  0  0  0  0  0  0  0  0  0  0
   -0.7500    1.2990    0.0000 C   0  0  0  0  0  0  0  0  0  0  0  0
    0.7500    1.2990    0.0000 C   0  0  0  0  0  0  0  0  0  0  0  0
  1  2  1  0
  2  3  1  0
  2  4  1  0
  4  5  2  0
  5  6  1  0
  6  7  2  0
  7  8  1  0
  8  9  2  0
  8 10  1  0
 10 11  1  0
 11 12  1  0
 12 13  1  0
 13 14  1  0
 14 15  1  0
 15 16  1  0
 16 17  2  0
 16 18  1  0
 18 19  1  0
 19 20  2  0
 20 21  1  0
 21 22  1  0
 21 23  2  0
 23 24  1  0
 24 25  2  0
 25 26  1  0
 10 27  1  0
 27 28  1  0
 28 29  2  0
 28 30  1  0
 30 31  1  0
 31 32  1  0
 32 33  2  0
 33 34  1  0
 34 35  2  0
 35 36  1  0
 36 37  2  0
  7 38  1  0
 38 39  2  0
 39  4  1  0
 25 19  1  0
 37 32  1  0
M  END
>  <molecule_chembl_id>  (259) 
CHEMBL4451376

>  <canonical_smiles>  (259) 
CN(C)c1ccc(C(=O)N(CCCCCC(=O)Nc2cc(F)ccc2N)CC(=O)NCc2ccccc2)cc1

>  <pchembl_value_mean>  (259) 
5.51

>  <document_chembl_id>  (259) 
CHEMBL4334526

$$$$

     RDKit          2D

 28 30  0  0  0  0  0  0  0  0999 V2000
    0.7500   -6.4952    0.0000 C   0  0  0  0  0  0  0  0  0  0  0  0
    1.5000   -5.1962    0.0000 C   0  0  0  0  0  0  0  0  0  0  0  0
    0.7500   -3.8971    0.0000 C   0  0  0  0  0  0  0  0  0  0  0  0
   -0.7500   -3.8971    0.0000 O   0  0  0  0  0  0  0  0  0  0  0  0
    1.5000   -2.5981    0.0000 N   0  0  0  0  0  0  0  0  0  0  0  0
    0.7500   -1.2990    0.0000 C   0  0  0  0  0  0  0  0  0  0  0  0
    1.5000    0.0000    0.0000 C   0  0  0  0  0  0  0  0  0  0  0  0
    0.7500    1.2990    0.0000 C   0  0  0  0  0  0  0  0  0  0  0  0
   -0.7500    1.2990    0.0000 C   0  0  0  0  0  0  0  0  0  0  0  0
   -1.5000    2.5981    0.0000 C   0  0  0  0  0  0  0  0  0  0  0  0
   -3.0000    2.5981    0.0000 O   0  0  0  0  0  0  0  0  0  0  0  0
   -0.7500    3.8971    0.0000 N   0  0  0  0  0  0  0  0  0  0  0  0
   -1.5000    5.1962    0.0000 C   0  0  0  0  0  0  0  0  0  0  0  0
   -0.7500    6.4952    0.0000 C   0  0  0  0  0  0  0  0  0  0  0  0
   -1.5000    7.7942    0.0000 C   0  0  0  0  0  0  0  0  0  0  0  0
   -3.0000    7.7942    0.0000 C   0  0  0  0  0  0  0  0  0  0  0  0
   -3.7500    9.0933    0.0000 F   0  0  0  0  0  0  0  0  0  0  0  0
   -3.7500    6.4952    0.0000 C   0  0  0  0  0  0  0  0  0  0  0  0
   -3.0000    5.1962    0.0000 C   0  0  0  0  0  0  0  0  0  0  0  0
   -3.7500    3.8971    0.0000 N   0  0  0  0  0  0  0  0  0  0  0  0
   -1.5000    0.0000    0.0000 C   0  0  0  0  0  0  0  0  0  0  0  0
   -0.7500   -1.2990    0.0000 C   0  0  0  0  0  0  0  0  0  0  0  0
    3.0000   -5.1962    0.0000 C   0  0  0  0  0  0  0  0  0  0  0  0
    3.7500   -6.4952    0.0000 C   0  0  0  0  0  0  0  0  0  0  0  0
    5.2500   -6.4952    0.0000 C   0  0  0  0  0  0  0  0  0  0  0  0
    6.0000   -5.1962    0.0000 C   0  0  0  0  0  0  0  0  0  0  0  0
    5.2500   -3.8971    0.0000 C   0  0  0  0  0  0  0  0  0  0  0  0
    3.7500   -3.8971    0.0000 C   0  0  0  0  0  0  0  0  0  0  0  0
  1  2  1  0
  2  3  1  0
  3  4  2  0
  3  5  1  0
  5  6  1  0
  6  7  2  0
  7  8  1  0
  8  9  2  0
  9 10  1  0
 10 11  2  0
 10 12  1  0
 12 13  1  0
 13 14  2  0
 14 15  1  0
 15 16  2  0
 16 17  1  0
 16 18  1  0
 18 19  2  0
 19 20  1  0
  9 21  1  0
 21 22  2  0
  2 23  1  0
 23 24  2  0
 24 25  1  0
 25 26  2  0
 26 27  1  0
 27 28  2  0
 22  6  1  0
 28 23  1  0
 19 13  1  0
M  END
>  <molecule_chembl_id>  (260) 
CHEMBL4161650

>  <canonical_smiles>  (260) 
CC(C(=O)Nc1ccc(C(=O)Nc2ccc(F)cc2N)cc1)c1ccccc1

>  <pchembl_value_mean>  (260) 
5.51

>  <document_chembl_id>  (260) 
CHEMBL4130443

$$$$

     RDKit          2D

 34 36  0  0  0  0  0  0  0  0999 V2000
   18.6217   -9.2657    0.0000 O   0  0  0  0  0  0  0  0  0  0  0  0
   19.0638   -7.8324    0.0000 C   0  0  0  0  0  0  0  0  0  0  0  0
   18.0435   -6.7328    0.0000 C   0  0  0  0  0  0  0  0  0  0  0  0
   16.5811   -7.0666    0.0000 C   0  0  0  0  0  0  0  0  0  0  0  0
   15.5609   -5.9670    0.0000 C   0  0  0  0  0  0  0  0  0  0  0  0
   14.0985   -6.3008    0.0000 C   0  0  0  0  0  0  0  0  0  0  0  0
   13.0782   -5.2012    0.0000 C   0  0  0  0  0  0  0  0  0  0  0  0
   11.6158   -5.5350    0.0000 C   0  0  0  0  0  0  0  0  0  0  0  0
   10.5956   -4.4354    0.0000 C   0  0  0  0  0  0  0  0  0  0  0  0
    9.1332   -4.7692    0.0000 C   0  0  0  0  0  0  0  0  0  0  0  0
    8.1129   -3.6696    0.0000 C   0  0  0  0  0  0  0  0  0  0  0  0
    8.5551   -2.2362    0.0000 O   0  0  0  0  0  0  0  0  0  0  0  0
    6.6505   -4.0034    0.0000 N   0  0  0  0  0  0  0  0  0  0  0  0
    5.6303   -2.9038    0.0000 C   0  0  0  0  0  0  0  0  0  0  0  0
    4.1679   -3.2376    0.0000 C   0  0  0  0  0  0  0  0  0  0  0  0
    3.1476   -2.1380    0.0000 C   0  0  0  0  0  0  0  0  0  0  0  0
    1.6852   -2.4718    0.0000 N   0  0  0  0  0  0  0  0  0  0  0  0
    0.7500   -1.2990    0.0000 C   0  0  0  0  0  0  0  0  0  0  0  0
    1.5000    0.0000    0.0000 C   0  0  0  0  0  0  0  0  0  0  0  0
    0.7500    1.2990    0.0000 C   0  0  0  0  0  0  0  0  0  0  0  0
   -0.7500    1.2990    0.0000 C   0  0  0  0  0  0  0  0  0  0  0  0
   -1.5000    0.0000    0.0000 C   0  0  0  0  0  0  0  0  0  0  0  0
   -0.7500   -1.2990    0.0000 C   0  0  0  0  0  0  0  0  0  0  0  0
   -1.6852   -2.4718    0.0000 C   0  0  0  0  0  0  0  0  0  0  0  0
   -1.3515   -3.9342    0.0000 C   0  0  0  0  0  0  0  0  0  0  0  0
   -0.0000   -4.5850    0.0000 C   0  0  0  0  0  0  0  0  0  0  0  0
   -0.1121   -6.0808    0.0000 C   0  0  0  0  0  0  0  0  0  0  0  0
    1.1273   -6.9258    0.0000 C   0  0  0  0  0  0  0  0  0  0  0  0
    2.4787   -6.2750    0.0000 C   0  0  0  0  0  0  0  0  0  0  0  0
    3.7181   -7.1199    0.0000 Cl  0  0  0  0  0  0  0  0  0  0  0  0
    2.5908   -4.7792    0.0000 C   0  0  0  0  0  0  0  0  0  0  0  0
    1.3515   -3.9342    0.0000 C   0  0  0  0  0  0  0  0  0  0  0  0
   20.5262   -7.4986    0.0000 N   0  0  0  0  0  0  0  0  0  0  0  0
   21.5464   -8.5982    0.0000 O   0  0  0  0  0  0  0  0  0  0  0  0
  1  2  2  0
  2  3  1  0
  3  4  1  0
  4  5  1  0
  5  6  1  0
  6  7  1  0
  7  8  1  0
  8  9  1  0
  9 10  1  0
 10 11  1  0
 11 12  2  0
 11 13  1  0
 13 14  1  0
 14 15  1  0
 15 16  1  0
 16 17  1  0
 17 18  1  0
 18 19  2  0
 19 20  1  0
 20 21  2  0
 21 22  1  0
 22 23  2  0
 23 24  1  0
 24 25  1  0
 25 26  1  0
 26 27  2  0
 27 28  1  0
 28 29  2  0
 29 30  1  0
 29 31  1  0
 31 32  2  0
  2 33  1  0
 33 34  1  0
 32 17  1  0
 23 18  1  0
 32 26  1  0
M  END
>  <molecule_chembl_id>  (261) 
CHEMBL4633944

>  <canonical_smiles>  (261) 
O=C(CCCCCCCCC(=O)NCCCN1c2ccccc2CCc2ccc(Cl)cc21)NO

>  <pchembl_value_mean>  (261) 
5.52

>  <document_chembl_id>  (261) 
CHEMBL4602647

$$$$

     RDKit          2D

 22 24  0  0  0  0  0  0  0  0999 V2000
    3.7500    1.2990    0.0000 O   0  0  0  0  0  0  0  0  0  0  0  0
    3.0000    0.0000    0.0000 C   0  0  0  0  0  0  0  0  0  0  0  0
    3.7500   -1.2990    0.0000 N   0  0  0  0  0  0  0  0  0  0  0  0
    5.2500   -1.2990    0.0000 O   0  0  0  0  0  0  0  0  0  0  0  0
    1.5000    0.0000    0.0000 C   0  0  0  0  0  0  0  0  0  0  0  0
    0.7500   -1.2990    0.0000 C   0  0  0  0  0  0  0  0  0  0  0  0
   -0.7500   -1.2990    0.0000 C   0  0  0  0  0  0  0  0  0  0  0  0
   -1.5000    0.0000    0.0000 C   0  0  0  0  0  0  0  0  0  0  0  0
   -3.0000    0.0000    0.0000 C   0  0  0  0  0  0  0  0  0  0  0  0
   -3.7500    1.2990    0.0000 N   0  0  0  0  0  0  0  0  0  0  0  0
   -5.2418    1.4558    0.0000 N   0  0  0  0  0  0  0  0  0  0  0  0
   -5.5537    2.9231    0.0000 N   0  0  0  0  0  0  0  0  0  0  0  0
   -4.2546    3.6731    0.0000 C   0  0  0  0  0  0  0  0  0  0  0  0
   -4.0978    5.1648    0.0000 C   0  0  0  0  0  0  0  0  0  0  0  0
   -2.7275    5.7749    0.0000 N   0  0  0  0  0  0  0  0  0  0  0  0
   -2.5707    7.2667    0.0000 C   0  0  0  0  0  0  0  0  0  0  0  0
   -3.7842    8.1484    0.0000 C   0  0  0  0  0  0  0  0  0  0  0  0
   -5.1546    7.5383    0.0000 C   0  0  0  0  0  0  0  0  0  0  0  0
   -5.3113    6.0465    0.0000 N   0  0  0  0  0  0  0  0  0  0  0  0
   -3.1399    2.6694    0.0000 N   0  0  0  0  0  0  0  0  0  0  0  0
   -0.7500    1.2990    0.0000 C   0  0  0  0  0  0  0  0  0  0  0  0
    0.7500    1.2990    0.0000 C   0  0  0  0  0  0  0  0  0  0  0  0
  1  2  2  0
  2  3  1  0
  3  4  1  0
  2  5  1  0
  5  6  2  0
  6  7  1  0
  7  8  2  0
  8  9  1  0
  9 10  1  0
 10 11  1  0
 11 12  2  0
 12 13  1  0
 13 14  1  0
 14 15  2  0
 15 16  1  0
 16 17  2  0
 17 18  1  0
 18 19  2  0
 13 20  2  0
  8 21  1  0
 21 22  2  0
 22  5  1  0
 20 10  1  0
 19 14  1  0
M  END
>  <molecule_chembl_id>  (262) 
CHEMBL4453121

>  <canonical_smiles>  (262) 
O=C(NO)c1ccc(Cn2nnc(-c3ncccn3)n2)cc1

>  <pchembl_value_mean>  (262) 
5.52

>  <document_chembl_id>  (262) 
CHEMBL4825781

$$$$

     RDKit          2D

 32 35  0  0  0  0  0  0  0  0999 V2000
    3.7500   -1.2990    0.0000 C   0  0  0  0  0  0  0  0  0  0  0  0
    3.0000    0.0000    0.0000 O   0  0  0  0  0  0  0  0  0  0  0  0
    1.5000    0.0000    0.0000 C   0  0  0  0  0  0  0  0  0  0  0  0
    0.7500   -1.2990    0.0000 C   0  0  0  0  0  0  0  0  0  0  0  0
   -0.7500   -1.2990    0.0000 C   0  0  0  0  0  0  0  0  0  0  0  0
   -1.5000    0.0000    0.0000 C   0  0  0  0  0  0  0  0  0  0  0  0
   -3.0000    0.0000    0.0000 N   0  0  0  0  0  0  0  0  0  0  0  0
   -3.7500    1.2990    0.0000 C   0  0  0  0  0  0  0  0  0  0  0  0
   -3.0000    2.5981    0.0000 O   0  0  0  0  0  0  0  0  0  0  0  0
   -5.2500    1.2990    0.0000 C   0  0  0  0  0  0  0  0  0  0  0  0
   -6.0000    2.5981    0.0000 C   0  0  0  0  0  0  0  0  0  0  0  0
   -7.5000    2.5981    0.0000 C   0  0  0  0  0  0  0  0  0  0  0  0
   -8.3817    1.3846    0.0000 C   0  0  0  0  0  0  0  0  0  0  0  0
   -9.8083    1.8481    0.0000 N   0  0  0  0  0  0  0  0  0  0  0  0
  -11.0218    0.9664    0.0000 C   0  0  0  0  0  0  0  0  0  0  0  0
  -12.3921    1.5765    0.0000 C   0  0  0  0  0  0  0  0  0  0  0  0
  -13.6056    0.6948    0.0000 C   0  0  0  0  0  0  0  0  0  0  0  0
  -13.4488   -0.7970    0.0000 C   0  0  0  0  0  0  0  0  0  0  0  0
  -12.0785   -1.4071    0.0000 C   0  0  0  0  0  0  0  0  0  0  0  0
  -10.8650   -0.5254    0.0000 C   0  0  0  0  0  0  0  0  0  0  0  0
   -9.8083    3.3481    0.0000 N   0  0  0  0  0  0  0  0  0  0  0  0
   -8.3817    3.8116    0.0000 C   0  0  0  0  0  0  0  0  0  0  0  0
   -7.9182    5.2382    0.0000 C   0  0  0  0  0  0  0  0  0  0  0  0
   -6.4509    5.5501    0.0000 C   0  0  0  0  0  0  0  0  0  0  0  0
   -5.9874    6.9766    0.0000 C   0  0  0  0  0  0  0  0  0  0  0  0
   -6.9911    8.0914    0.0000 C   0  0  0  0  0  0  0  0  0  0  0  0
   -6.5276    9.5179    0.0000 O   0  0  0  0  0  0  0  0  0  0  0  0
   -5.0604    9.8298    0.0000 C   0  0  0  0  0  0  0  0  0  0  0  0
   -8.4583    7.7795    0.0000 C   0  0  0  0  0  0  0  0  0  0  0  0
   -8.9218    6.3529    0.0000 C   0  0  0  0  0  0  0  0  0  0  0  0
   -0.7500    1.2990    0.0000 C   0  0  0  0  0  0  0  0  0  0  0  0
    0.7500    1.2990    0.0000 C   0  0  0  0  0  0  0  0  0  0  0  0
  1  2  1  0
  2  3  1  0
  3  4  2  0
  4  5  1  0
  5  6  2  0
  6  7  1  0
  7  8  1  0
  8  9  2  0
  8 10  1  0
 10 11  2  3
 11 12  1  0
 12 13  2  0
 13 14  1  0
 14 15  1  0
 15 16  2  0
 16 17  1  0
 17 18  2  0
 18 19  1  0
 19 20  2  0
 14 21  1  0
 21 22  2  0
 22 23  1  0
 23 24  2  0
 24 25  1  0
 25 26  2  0
 26 27  1  0
 27 28  1  0
 26 29  1  0
 29 30  2  0
  6 31  1  0
 31 32  2  0
 32  3  1  0
 22 12  1  0
 30 23  1  0
 20 15  1  0
M  END
>  <molecule_chembl_id>  (263) 
CHEMBL2047612

>  <canonical_smiles>  (263) 
COc1ccc(NC(=O)C=Cc2cn(-c3ccccc3)nc2-c2ccc(OC)cc2)cc1

>  <pchembl_value_mean>  (263) 
5.52

>  <document_chembl_id>  (263) 
CHEMBL2046430

$$$$

     RDKit          2D

 28 30  0  0  0  0  0  0  0  0999 V2000
    3.0000    0.0000    0.0000 N   0  0  0  0  0  0  0  0  0  0  0  0
    1.5000    0.0000    0.0000 C   0  0  0  0  0  0  0  0  0  0  0  0
    0.7500   -1.2990    0.0000 C   0  0  0  0  0  0  0  0  0  0  0  0
   -0.7500   -1.2990    0.0000 C   0  0  0  0  0  0  0  0  0  0  0  0
   -1.5000   -2.5981    0.0000 F   0  0  0  0  0  0  0  0  0  0  0  0
   -1.5000    0.0000    0.0000 C   0  0  0  0  0  0  0  0  0  0  0  0
   -0.7500    1.2990    0.0000 C   0  0  0  0  0  0  0  0  0  0  0  0
    0.7500    1.2990    0.0000 C   0  0  0  0  0  0  0  0  0  0  0  0
    1.5000    2.5981    0.0000 N   0  0  0  0  0  0  0  0  0  0  0  0
    0.7500    3.8971    0.0000 C   0  0  0  0  0  0  0  0  0  0  0  0
   -0.7500    3.8971    0.0000 O   0  0  0  0  0  0  0  0  0  0  0  0
    1.5000    5.1962    0.0000 C   0  0  0  0  0  0  0  0  0  0  0  0
    3.0000    5.1962    0.0000 C   0  0  0  0  0  0  0  0  0  0  0  0
    3.7500    6.4952    0.0000 C   0  0  0  0  0  0  0  0  0  0  0  0
    3.0000    7.7942    0.0000 C   0  0  0  0  0  0  0  0  0  0  0  0
    3.7500    9.0933    0.0000 N   0  0  0  0  0  0  0  0  0  0  0  0
    5.2500    9.0933    0.0000 C   0  0  0  0  0  0  0  0  0  0  0  0
    6.0000    7.7942    0.0000 O   0  0  0  0  0  0  0  0  0  0  0  0
    6.0000   10.3923    0.0000 C   0  0  0  0  0  0  0  0  0  0  0  0
    7.5000   10.3923    0.0000 C   0  0  0  0  0  0  0  0  0  0  0  0
    8.2500    9.0933    0.0000 C   0  0  0  0  0  0  0  0  0  0  0  0
    9.7500    9.0933    0.0000 C   0  0  0  0  0  0  0  0  0  0  0  0
   10.5000   10.3923    0.0000 C   0  0  0  0  0  0  0  0  0  0  0  0
   12.0000   10.3923    0.0000 F   0  0  0  0  0  0  0  0  0  0  0  0
    9.7500   11.6913    0.0000 C   0  0  0  0  0  0  0  0  0  0  0  0
    8.2500   11.6913    0.0000 C   0  0  0  0  0  0  0  0  0  0  0  0
    1.5000    7.7942    0.0000 C   0  0  0  0  0  0  0  0  0  0  0  0
    0.7500    6.4952    0.0000 N   0  0  0  0  0  0  0  0  0  0  0  0
  1  2  1  0
  2  3  2  0
  3  4  1  0
  4  5  1  0
  4  6  2  0
  6  7  1  0
  7  8  2  0
  8  9  1  0
  9 10  1  0
 10 11  2  0
 10 12  1  0
 12 13  2  0
 13 14  1  0
 14 15  2  0
 15 16  1  0
 16 17  1  0
 17 18  2  0
 17 19  1  0
 19 20  1  0
 20 21  2  0
 21 22  1  0
 22 23  2  0
 23 24  1  0
 23 25  1  0
 25 26  2  0
 15 27  1  0
 27 28  2  0
  8  2  1  0
 28 12  1  0
 26 20  1  0
M  END
>  <molecule_chembl_id>  (264) 
CHEMBL4168651

>  <canonical_smiles>  (264) 
Nc1cc(F)ccc1NC(=O)c1ccc(NC(=O)Cc2ccc(F)cc2)cn1

>  <pchembl_value_mean>  (264) 
5.52

>  <document_chembl_id>  (264) 
CHEMBL4130443

$$$$

     RDKit          2D

 23 25  0  0  0  0  0  0  0  0999 V2000
   -7.5000   -5.1962    0.0000 O   0  0  0  0  0  0  0  0  0  0  0  0
   -6.0000   -5.1962    0.0000 C   0  0  0  0  0  0  0  0  0  0  0  0
   -5.2500   -6.4952    0.0000 N   0  0  0  0  0  0  0  0  0  0  0  0
   -6.0000   -7.7942    0.0000 O   0  0  0  0  0  0  0  0  0  0  0  0
   -5.2500   -3.8971    0.0000 C   0  0  0  0  0  0  0  0  0  0  0  0
   -3.7500   -3.8971    0.0000 C   0  0  0  0  0  0  0  0  0  0  0  0
   -3.0000   -2.5981    0.0000 N   0  0  0  0  0  0  0  0  0  0  0  0
   -3.7500   -1.2990    0.0000 C   0  0  0  0  0  0  0  0  0  0  0  0
   -3.0000    0.0000    0.0000 N   0  0  0  0  0  0  0  0  0  0  0  0
   -3.7500    1.2990    0.0000 C   0  0  0  0  0  0  0  0  0  0  0  0
   -2.3405    1.8121    0.0000 C   0  0  0  0  0  0  0  0  0  0  0  0
   -1.1914    0.8479    0.0000 C   0  0  0  0  0  0  0  0  0  0  0  0
    0.2181    1.3609    0.0000 C   0  0  0  0  0  0  0  0  0  0  0  0
    0.4786    2.8381    0.0000 C   0  0  0  0  0  0  0  0  0  0  0  0
   -0.6704    3.8023    0.0000 C   0  0  0  0  0  0  0  0  0  0  0  0
   -2.0800    3.2893    0.0000 C   0  0  0  0  0  0  0  0  0  0  0  0
   -4.8991    0.3349    0.0000 C   0  0  0  0  0  0  0  0  0  0  0  0
   -6.3086    0.8479    0.0000 C   0  0  0  0  0  0  0  0  0  0  0  0
   -6.5691    2.3251    0.0000 C   0  0  0  0  0  0  0  0  0  0  0  0
   -5.4200    3.2893    0.0000 C   0  0  0  0  0  0  0  0  0  0  0  0
   -4.0105    2.7762    0.0000 C   0  0  0  0  0  0  0  0  0  0  0  0
   -5.2500   -1.2990    0.0000 N   0  0  0  0  0  0  0  0  0  0  0  0
   -6.0000   -2.5981    0.0000 C   0  0  0  0  0  0  0  0  0  0  0  0
  1  2  2  0
  2  3  1  0
  3  4  1  0
  2  5  1  0
  5  6  2  0
  6  7  1  0
  7  8  2  0
  8  9  1  0
  9 10  1  0
 10 11  1  0
 11 12  2  0
 12 13  1  0
 13 14  2  0
 14 15  1  0
 15 16  2  0
 10 17  1  0
 17 18  1  0
 18 19  1  0
 19 20  1  0
 20 21  1  0
  8 22  1  0
 22 23  2  0
 23  5  1  0
 21 10  1  0
 16 11  1  0
M  END
>  <molecule_chembl_id>  (265) 
CHEMBL3655961

>  <canonical_smiles>  (265) 
O=C(NO)c1cnc(NC2(c3ccccc3)CCCCC2)nc1

>  <pchembl_value_mean>  (265) 
5.53

>  <document_chembl_id>  (265) 
CHEMBL3639071

$$$$

     RDKit          2D

 30 31  0  0  0  0  0  0  0  0999 V2000
    7.2990   -1.8481    0.0000 C   0  0  0  0  0  0  0  0  0  0  0  0
    6.0000   -2.5981    0.0000 C   0  0  0  0  0  0  0  0  0  0  0  0
    4.7010   -3.3481    0.0000 C   0  0  0  0  0  0  0  0  0  0  0  0
    6.7500   -3.8971    0.0000 C   0  0  0  0  0  0  0  0  0  0  0  0
    5.2500   -1.2990    0.0000 O   0  0  0  0  0  0  0  0  0  0  0  0
    3.7500   -1.2990    0.0000 C   0  0  0  0  0  0  0  0  0  0  0  0
    3.0000   -2.5981    0.0000 O   0  0  0  0  0  0  0  0  0  0  0  0
    3.0000    0.0000    0.0000 N   0  0  0  0  0  0  0  0  0  0  0  0
    1.5000    0.0000    0.0000 C   0  0  0  0  0  0  0  0  0  0  0  0
    0.7500   -1.2990    0.0000 C   0  0  0  0  0  0  0  0  0  0  0  0
   -0.7500   -1.2990    0.0000 C   0  0  0  0  0  0  0  0  0  0  0  0
   -1.5000    0.0000    0.0000 C   0  0  0  0  0  0  0  0  0  0  0  0
   -0.7500    1.2990    0.0000 C   0  0  0  0  0  0  0  0  0  0  0  0
   -1.5000    2.5981    0.0000 C   0  0  0  0  0  0  0  0  0  0  0  0
   -2.9918    2.7549    0.0000 C   0  0  0  0  0  0  0  0  0  0  0  0
   -3.3037    4.2221    0.0000 C   0  0  0  0  0  0  0  0  0  0  0  0
   -4.6740    4.8322    0.0000 C   0  0  0  0  0  0  0  0  0  0  0  0
   -5.8875    3.9505    0.0000 O   0  0  0  0  0  0  0  0  0  0  0  0
   -4.8308    6.3240    0.0000 N   0  0  0  0  0  0  0  0  0  0  0  0
   -6.2011    6.9341    0.0000 C   0  0  0  0  0  0  0  0  0  0  0  0
   -6.3579    8.4259    0.0000 C   0  0  0  0  0  0  0  0  0  0  0  0
   -7.7282    9.0360    0.0000 C   0  0  0  0  0  0  0  0  0  0  0  0
   -7.8850   10.5278    0.0000 C   0  0  0  0  0  0  0  0  0  0  0  0
   -9.2553   11.1379    0.0000 C   0  0  0  0  0  0  0  0  0  0  0  0
  -10.4688   10.2562    0.0000 O   0  0  0  0  0  0  0  0  0  0  0  0
   -9.4121   12.6296    0.0000 N   0  0  0  0  0  0  0  0  0  0  0  0
  -10.7824   13.2397    0.0000 O   0  0  0  0  0  0  0  0  0  0  0  0
   -2.0046    4.9721    0.0000 N   0  0  0  0  0  0  0  0  0  0  0  0
   -0.8899    3.9684    0.0000 O   0  0  0  0  0  0  0  0  0  0  0  0
    0.7500    1.2990    0.0000 C   0  0  0  0  0  0  0  0  0  0  0  0
  1  2  1  0
  2  3  1  0
  2  4  1  0
  2  5  1  0
  5  6  1  0
  6  7  2  0
  6  8  1  0
  8  9  1  0
  9 10  2  0
 10 11  1  0
 11 12  2  0
 12 13  1  0
 13 14  1  0
 14 15  2  0
 15 16  1  0
 16 17  1  0
 17 18  2  0
 17 19  1  0
 19 20  1  0
 20 21  1  0
 21 22  1  0
 22 23  1  0
 23 24  1  0
 24 25  2  0
 24 26  1  0
 26 27  1  0
 16 28  2  0
 28 29  1  0
 13 30  2  0
 30  9  1  0
 29 14  1  0
M  END
>  <molecule_chembl_id>  (266) 
CHEMBL469275

>  <canonical_smiles>  (266) 
CC(C)(C)OC(=O)Nc1cccc(-c2cc(C(=O)NCCCCC(=O)NO)no2)c1

>  <pchembl_value_mean>  (266) 
5.53

>  <document_chembl_id>  (266) 
CHEMBL1155917

$$$$

     RDKit          2D

 26 28  0  0  0  0  0  0  0  0999 V2000
    3.0000    0.0000    0.0000 N   0  0  0  0  0  0  0  0  0  0  0  0
    1.5000    0.0000    0.0000 C   0  0  0  0  0  0  0  0  0  0  0  0
    0.7500   -1.2990    0.0000 C   0  0  0  0  0  0  0  0  0  0  0  0
   -0.7500   -1.2990    0.0000 C   0  0  0  0  0  0  0  0  0  0  0  0
   -1.5000    0.0000    0.0000 C   0  0  0  0  0  0  0  0  0  0  0  0
   -0.7500    1.2990    0.0000 C   0  0  0  0  0  0  0  0  0  0  0  0
    0.7500    1.2990    0.0000 C   0  0  0  0  0  0  0  0  0  0  0  0
    1.5000    2.5981    0.0000 N   0  0  0  0  0  0  0  0  0  0  0  0
    0.7500    3.8971    0.0000 C   0  0  0  0  0  0  0  0  0  0  0  0
   -0.7500    3.8971    0.0000 O   0  0  0  0  0  0  0  0  0  0  0  0
    1.5000    5.1962    0.0000 C   0  0  0  0  0  0  0  0  0  0  0  0
    0.7500    6.4952    0.0000 C   0  0  0  0  0  0  0  0  0  0  0  0
    1.5000    7.7942    0.0000 C   0  0  0  0  0  0  0  0  0  0  0  0
    0.7500    9.0933    0.0000 C   0  0  0  0  0  0  0  0  0  0  0  0
    1.5000   10.3923    0.0000 C   0  0  0  0  0  0  0  0  0  0  0  0
    0.7500   11.6913    0.0000 C   0  0  0  0  0  0  0  0  0  0  0  0
    1.5000   12.9904    0.0000 C   0  0  0  0  0  0  0  0  0  0  0  0
    0.8899   14.3607    0.0000 N   0  0  0  0  0  0  0  0  0  0  0  0
    2.0046   15.3644    0.0000 C   0  0  0  0  0  0  0  0  0  0  0  0
    1.8478   16.8562    0.0000 C   0  0  0  0  0  0  0  0  0  0  0  0
    0.5488   17.6062    0.0000 C   0  0  0  0  0  0  0  0  0  0  0  0
    0.8606   19.0734    0.0000 C   0  0  0  0  0  0  0  0  0  0  0  0
    2.3524   19.2302    0.0000 C   0  0  0  0  0  0  0  0  0  0  0  0
    2.9625   17.8599    0.0000 S   0  0  0  0  0  0  0  0  0  0  0  0
    3.3037   14.6144    0.0000 N   0  0  0  0  0  0  0  0  0  0  0  0
    2.9918   13.1472    0.0000 O   0  0  0  0  0  0  0  0  0  0  0  0
  1  2  1  0
  2  3  2  0
  3  4  1  0
  4  5  2  0
  5  6  1  0
  6  7  2  0
  7  8  1  0
  8  9  1  0
  9 10  2  0
  9 11  1  0
 11 12  1  0
 12 13  1  0
 13 14  1  0
 14 15  1  0
 15 16  1  0
 16 17  1  0
 17 18  2  0
 18 19  1  0
 19 20  1  0
 20 21  2  0
 21 22  1  0
 22 23  2  0
 23 24  1  0
 19 25  2  0
 25 26  1  0
  7  2  1  0
 26 17  1  0
 24 20  1  0
M  END
>  <molecule_chembl_id>  (267) 
CHEMBL3585978

>  <canonical_smiles>  (267) 
Nc1ccccc1NC(=O)CCCCCCc1nc(-c2cccs2)no1

>  <pchembl_value_mean>  (267) 
5.54

>  <document_chembl_id>  (267) 
CHEMBL3585316

$$$$

     RDKit          2D

 27 29  0  0  0  0  0  0  0  0999 V2000
    3.7500   -1.2990    0.0000 C   0  0  0  0  0  0  0  0  0  0  0  0
    3.0000    0.0000    0.0000 O   0  0  0  0  0  0  0  0  0  0  0  0
    1.5000    0.0000    0.0000 C   0  0  0  0  0  0  0  0  0  0  0  0
    0.7500   -1.2990    0.0000 C   0  0  0  0  0  0  0  0  0  0  0  0
   -0.7500   -1.2990    0.0000 C   0  0  0  0  0  0  0  0  0  0  0  0
   -1.5000    0.0000    0.0000 C   0  0  0  0  0  0  0  0  0  0  0  0
   -3.0000    0.0000    0.0000 C   0  0  0  0  0  0  0  0  0  0  0  0
   -3.7500    1.2990    0.0000 C   0  0  0  0  0  0  0  0  0  0  0  0
   -5.2500    1.2990    0.0000 C   0  0  0  0  0  0  0  0  0  0  0  0
   -6.0000    0.0000    0.0000 O   0  0  0  0  0  0  0  0  0  0  0  0
   -6.0000    2.5981    0.0000 C   0  0  0  0  0  0  0  0  0  0  0  0
   -7.4918    2.7549    0.0000 N   0  0  0  0  0  0  0  0  0  0  0  0
   -7.8037    4.2221    0.0000 N   0  0  0  0  0  0  0  0  0  0  0  0
   -6.5046    4.9721    0.0000 N   0  0  0  0  0  0  0  0  0  0  0  0
   -6.3478    6.4639    0.0000 C   0  0  0  0  0  0  0  0  0  0  0  0
   -4.9775    7.0740    0.0000 C   0  0  0  0  0  0  0  0  0  0  0  0
   -4.8207    8.5658    0.0000 C   0  0  0  0  0  0  0  0  0  0  0  0
   -6.0342    9.4474    0.0000 C   0  0  0  0  0  0  0  0  0  0  0  0
   -5.8774   10.9392    0.0000 Cl  0  0  0  0  0  0  0  0  0  0  0  0
   -7.4046    8.8373    0.0000 C   0  0  0  0  0  0  0  0  0  0  0  0
   -7.5613    7.3456    0.0000 C   0  0  0  0  0  0  0  0  0  0  0  0
   -5.3899    3.9684    0.0000 C   0  0  0  0  0  0  0  0  0  0  0  0
   -3.9227    4.2803    0.0000 C   0  0  0  0  0  0  0  0  0  0  0  0
   -0.7500    1.2990    0.0000 C   0  0  0  0  0  0  0  0  0  0  0  0
    0.7500    1.2990    0.0000 C   0  0  0  0  0  0  0  0  0  0  0  0
    1.5000    2.5981    0.0000 O   0  0  0  0  0  0  0  0  0  0  0  0
    0.7500    3.8971    0.0000 C   0  0  0  0  0  0  0  0  0  0  0  0
  1  2  1  0
  2  3  1  0
  3  4  2  0
  4  5  1  0
  5  6  2  0
  6  7  1  0
  7  8  2  3
  8  9  1  0
  9 10  2  0
  9 11  1  0
 11 12  1  0
 12 13  2  0
 13 14  1  0
 14 15  1  0
 15 16  2  0
 16 17  1  0
 17 18  2  0
 18 19  1  0
 18 20  1  0
 20 21  2  0
 14 22  1  0
 22 23  1  0
  6 24  1  0
 24 25  2  0
 25 26  1  0
 26 27  1  0
 25  3  1  0
 22 11  2  0
 21 15  1  0
M  END
>  <molecule_chembl_id>  (268) 
CHEMBL4778826

>  <canonical_smiles>  (268) 
COc1ccc(C=CC(=O)c2nnn(-c3ccc(Cl)cc3)c2C)cc1OC

>  <pchembl_value_mean>  (268) 
5.54

>  <document_chembl_id>  (268) 
CHEMBL4680183

$$$$

     RDKit          2D

 35 37  0  0  0  0  0  0  0  0999 V2000
    5.2500   -3.8971    0.0000 C   0  0  0  0  0  0  0  0  0  0  0  0
    3.7500   -3.8971    0.0000 C   0  0  0  0  0  0  0  0  0  0  0  0
    3.0000   -2.5981    0.0000 O   0  0  0  0  0  0  0  0  0  0  0  0
    1.5000   -2.5981    0.0000 C   0  0  0  0  0  0  0  0  0  0  0  0
    0.7500   -3.8971    0.0000 C   0  0  0  0  0  0  0  0  0  0  0  0
   -0.7500   -3.8971    0.0000 C   0  0  0  0  0  0  0  0  0  0  0  0
   -1.5000   -5.1962    0.0000 N   0  0  0  0  0  0  0  0  0  0  0  0
   -3.0000   -5.1962    0.0000 C   0  0  0  0  0  0  0  0  0  0  0  0
   -3.7500   -3.8971    0.0000 O   0  0  0  0  0  0  0  0  0  0  0  0
   -3.7500   -6.4952    0.0000 C   0  0  0  0  0  0  0  0  0  0  0  0
   -5.2500   -6.4952    0.0000 C   0  0  0  0  0  0  0  0  0  0  0  0
   -6.0000   -7.7942    0.0000 C   0  0  0  0  0  0  0  0  0  0  0  0
   -7.5000   -7.7942    0.0000 C   0  0  0  0  0  0  0  0  0  0  0  0
   -8.2500   -9.0933    0.0000 N   0  0  0  0  0  0  0  0  0  0  0  0
   -9.7500   -9.0933    0.0000 C   0  0  0  0  0  0  0  0  0  0  0  0
  -10.5000   -7.7942    0.0000 O   0  0  0  0  0  0  0  0  0  0  0  0
  -10.5000  -10.3923    0.0000 C   0  0  0  0  0  0  0  0  0  0  0  0
   -9.7500  -11.6913    0.0000 N   0  0  0  0  0  0  0  0  0  0  0  0
  -12.0000  -10.3923    0.0000 C   0  0  0  0  0  0  0  0  0  0  0  0
  -12.7500  -11.6913    0.0000 C   0  0  0  0  0  0  0  0  0  0  0  0
  -14.2500  -11.6913    0.0000 C   0  0  0  0  0  0  0  0  0  0  0  0
  -15.0000  -12.9904    0.0000 C   0  0  0  0  0  0  0  0  0  0  0  0
  -14.2500  -14.2894    0.0000 C   0  0  0  0  0  0  0  0  0  0  0  0
  -12.7500  -14.2894    0.0000 C   0  0  0  0  0  0  0  0  0  0  0  0
  -12.0000  -12.9904    0.0000 C   0  0  0  0  0  0  0  0  0  0  0  0
   -1.5000   -2.5981    0.0000 C   0  0  0  0  0  0  0  0  0  0  0  0
   -0.7500   -1.2990    0.0000 C   0  0  0  0  0  0  0  0  0  0  0  0
    0.7500   -1.2990    0.0000 C   0  0  0  0  0  0  0  0  0  0  0  0
    1.5000    0.0000    0.0000 O   0  0  0  0  0  0  0  0  0  0  0  0
    0.7500    1.2990    0.0000 C   0  0  0  0  0  0  0  0  0  0  0  0
   -0.7500    1.2990    0.0000 C   0  0  0  0  0  0  0  0  0  0  0  0
   -1.5000    2.5981    0.0000 N   0  0  0  0  0  4  0  0  0  0  0  0
   -3.0000    2.5981    0.0000 O   0  0  0  0  0  0  0  0  0  0  0  0
   -0.7500    3.8971    0.0000 O   0  0  0  0  0  1  0  0  0  0  0  0
   -1.5000    0.0000    0.0000 C   0  0  0  0  0  0  0  0  0  0  0  0
  1  2  1  0
  2  3  1  0
  3  4  1  0
  4  5  2  0
  5  6  1  0
  6  7  1  0
  7  8  1  0
  8  9  2  0
  8 10  1  0
 10 11  1  0
 11 12  1  0
 12 13  1  0
 13 14  1  0
 14 15  1  0
 15 16  2  0
 15 17  1  0
 17 18  1  0
 17 19  1  0
 19 20  1  0
 20 21  2  0
 21 22  1  0
 22 23  2  0
 23 24  1  0
 24 25  2  0
  6 26  2  0
 26 27  1  0
 27 28  2  0
 28 29  1  0
 29 30  1  0
 30 31  1  0
 31 32  1  0
 32 33  2  0
 32 34  1  0
 31 35  2  0
 28  4  1  0
 25 20  1  0
 35 27  1  0
M  CHG  2  32   1  34  -1
M  END
>  <molecule_chembl_id>  (269) 
CHEMBL4103290

>  <canonical_smiles>  (269) 
CCOc1cc(NC(=O)CCCCNC(=O)C(N)Cc2ccccc2)cc2c1OCC([N+](=O)[O-])=C2

>  <pchembl_value_mean>  (269) 
5.54

>  <document_chembl_id>  (269) 
CHEMBL4052685

$$$$

     RDKit          2D

 38 41  0  0  0  0  0  0  0  0999 V2000
    3.7500   -1.2990    0.0000 C   0  0  0  0  0  0  0  0  0  0  0  0
    3.0000    0.0000    0.0000 O   0  0  0  0  0  0  0  0  0  0  0  0
    1.5000    0.0000    0.0000 C   0  0  0  0  0  0  0  0  0  0  0  0
    0.7500   -1.2990    0.0000 C   0  0  0  0  0  0  0  0  0  0  0  0
   -0.7500   -1.2990    0.0000 C   0  0  0  0  0  0  0  0  0  0  0  0
   -1.5000    0.0000    0.0000 C   0  0  0  0  0  0  0  0  0  0  0  0
   -2.9672    0.3119    0.0000 N   0  0  0  0  0  0  0  0  0  0  0  0
   -3.1240    1.8037    0.0000 C   0  0  0  0  0  0  0  0  0  0  0  0
   -1.7537    2.4138    0.0000 C   0  0  0  0  0  0  0  0  0  0  0  0
   -1.4418    3.8810    0.0000 C   0  0  0  0  0  0  0  0  0  0  0  0
   -2.5565    4.8847    0.0000 C   0  0  0  0  0  0  0  0  0  0  0  0
   -2.2447    6.3519    0.0000 N   0  0  0  0  0  0  0  0  0  0  0  0
   -3.3594    7.3556    0.0000 C   0  0  0  0  0  0  0  0  0  0  0  0
   -3.0475    8.8228    0.0000 C   0  0  0  0  0  0  0  0  0  0  0  0
   -1.6209    9.2863    0.0000 C   0  0  0  0  0  0  0  0  0  0  0  0
   -1.3091   10.7536    0.0000 C   0  0  0  0  0  0  0  0  0  0  0  0
   -2.4238   11.7573    0.0000 C   0  0  0  0  0  0  0  0  0  0  0  0
   -2.1119   13.2245    0.0000 C   0  0  0  0  0  0  0  0  0  0  0  0
   -3.2266   14.2282    0.0000 O   0  0  0  0  0  0  0  0  0  0  0  0
   -0.6853   13.6880    0.0000 N   0  0  0  0  0  0  0  0  0  0  0  0
   -0.3735   15.1552    0.0000 O   0  0  0  0  0  0  0  0  0  0  0  0
   -3.8504   11.2937    0.0000 C   0  0  0  0  0  0  0  0  0  0  0  0
   -4.1622    9.8265    0.0000 C   0  0  0  0  0  0  0  0  0  0  0  0
   -0.8181    6.8154    0.0000 C   0  0  0  0  0  0  0  0  0  0  0  0
    0.2966    5.8117    0.0000 O   0  0  0  0  0  0  0  0  0  0  0  0
   -0.5062    8.2826    0.0000 C   0  0  0  0  0  0  0  0  0  0  0  0
    0.9204    8.7462    0.0000 C   0  0  0  0  0  0  0  0  0  0  0  0
    1.2322   10.2134    0.0000 C   0  0  0  0  0  0  0  0  0  0  0  0
    0.1175   11.2171    0.0000 C   0  0  0  0  0  0  0  0  0  0  0  0
    0.4294   12.6843    0.0000 C   0  0  0  0  0  0  0  0  0  0  0  0
    1.8560   13.1478    0.0000 C   0  0  0  0  0  0  0  0  0  0  0  0
    2.1678   14.6151    0.0000 O   0  0  0  0  0  0  0  0  0  0  0  0
    2.9707   12.1441    0.0000 C   0  0  0  0  0  0  0  0  0  0  0  0
    4.3973   12.6077    0.0000 O   0  0  0  0  0  0  0  0  0  0  0  0
    4.7091   14.0749    0.0000 C   0  0  0  0  0  0  0  0  0  0  0  0
    2.6588   10.6769    0.0000 C   0  0  0  0  0  0  0  0  0  0  0  0
   -0.7500    1.2990    0.0000 C   0  0  0  0  0  0  0  0  0  0  0  0
    0.7500    1.2990    0.0000 C   0  0  0  0  0  0  0  0  0  0  0  0
  1  2  1  0
  2  3  1  0
  3  4  2  0
  4  5  1  0
  5  6  2  0
  6  7  1  0
  7  8  1  0
  8  9  2  0
  9 10  1  0
 10 11  1  0
 11 12  1  0
 12 13  1  0
 13 14  1  0
 14 15  2  0
 15 16  1  0
 16 17  2  0
 17 18  1  0
 18 19  2  0
 18 20  1  0
 20 21  1  0
 17 22  1  0
 22 23  2  0
 12 24  1  0
 24 25  2  0
 24 26  1  0
 26 27  2  3
 27 28  1  0
 28 29  2  0
 29 30  1  0
 30 31  2  0
 31 32  1  0
 31 33  1  0
 33 34  1  0
 34 35  1  0
 33 36  2  0
  9 37  1  0
 37 38  2  0
 38  3  1  0
 37  6  1  0
 23 14  1  0
 36 28  1  0
M  END
>  <molecule_chembl_id>  (270) 
CHEMBL5072502

>  <canonical_smiles>  (270) 
COc1ccc2[nH]cc(CCN(Cc3ccc(C(=O)NO)cc3)C(=O)C=Cc3ccc(O)c(OC)c3)c2c1

>  <pchembl_value_mean>  (270) 
5.545

>  <document_chembl_id>  (270) 
CHEMBL5036306

$$$$

     RDKit          2D

 27 28  0  0  0  0  0  0  0  0999 V2000
   10.4688  -10.2562    0.0000 O   0  0  0  0  0  0  0  0  0  0  0  0
    9.2553  -11.1379    0.0000 C   0  0  0  0  0  0  0  0  0  0  0  0
    7.8850  -10.5278    0.0000 C   0  0  0  0  0  0  0  0  0  0  0  0
    7.7282   -9.0360    0.0000 C   0  0  0  0  0  0  0  0  0  0  0  0
    6.3579   -8.4259    0.0000 C   0  0  0  0  0  0  0  0  0  0  0  0
    6.2011   -6.9341    0.0000 C   0  0  0  0  0  0  0  0  0  0  0  0
    4.8308   -6.3240    0.0000 C   0  0  0  0  0  0  0  0  0  0  0  0
    4.6740   -4.8322    0.0000 C   0  0  0  0  0  0  0  0  0  0  0  0
    3.3037   -4.2221    0.0000 C   0  0  0  0  0  0  0  0  0  0  0  0
    2.9918   -2.7549    0.0000 N   0  0  0  0  0  0  0  0  0  0  0  0
    1.5000   -2.5981    0.0000 C   0  0  0  0  0  0  0  0  0  0  0  0
    0.7500   -1.2990    0.0000 C   0  0  0  0  0  0  0  0  0  0  0  0
    1.5000    0.0000    0.0000 C   0  0  0  0  0  0  0  0  0  0  0  0
    0.7500    1.2990    0.0000 C   0  0  0  0  0  0  0  0  0  0  0  0
   -0.7500    1.2990    0.0000 C   0  0  0  0  0  0  0  0  0  0  0  0
   -1.5000    2.5981    0.0000 C   0  0  0  0  0  0  0  0  0  0  0  0
   -2.2500    3.8971    0.0000 F   0  0  0  0  0  0  0  0  0  0  0  0
   -0.2010    3.3481    0.0000 F   0  0  0  0  0  0  0  0  0  0  0  0
   -2.7990    1.8481    0.0000 F   0  0  0  0  0  0  0  0  0  0  0  0
   -1.5000    0.0000    0.0000 C   0  0  0  0  0  0  0  0  0  0  0  0
   -0.7500   -1.2990    0.0000 C   0  0  0  0  0  0  0  0  0  0  0  0
    0.8899   -3.9684    0.0000 N   0  0  0  0  0  0  0  0  0  0  0  0
    2.0046   -4.9721    0.0000 O   0  0  0  0  0  0  0  0  0  0  0  0
    9.4121  -12.6296    0.0000 C   0  0  0  0  0  0  0  0  0  0  0  0
    9.5689  -14.1214    0.0000 F   0  0  0  0  0  0  0  0  0  0  0  0
   10.9039  -12.4728    0.0000 F   0  0  0  0  0  0  0  0  0  0  0  0
    7.9203  -12.7864    0.0000 F   0  0  0  0  0  0  0  0  0  0  0  0
  1  2  2  0
  2  3  1  0
  3  4  1  0
  4  5  1  0
  5  6  1  0
  6  7  1  0
  7  8  1  0
  8  9  1  0
  9 10  2  0
 10 11  1  0
 11 12  1  0
 12 13  2  0
 13 14  1  0
 14 15  2  0
 15 16  1  0
 16 17  1  0
 16 18  1  0
 16 19  1  0
 15 20  1  0
 20 21  2  0
 11 22  2  0
 22 23  1  0
  2 24  1  0
 24 25  1  0
 24 26  1  0
 24 27  1  0
 23  9  1  0
 21 12  1  0
M  END
>  <molecule_chembl_id>  (271) 
CHEMBL3585983

>  <canonical_smiles>  (271) 
O=C(CCCCCCc1nc(-c2ccc(C(F)(F)F)cc2)no1)C(F)(F)F

>  <pchembl_value_mean>  (271) 
5.55

>  <document_chembl_id>  (271) 
CHEMBL3585316

$$$$

     RDKit          2D

 44 45  0  0  0  0  0  0  0  0999 V2000
    1.5922    6.6948    0.0000 C   0  0  0  0  0  0  0  0  0  0  0  0
    0.1004    6.8516    0.0000 C   0  0  0  0  0  0  0  0  0  0  0  0
   -0.7813    5.6380    0.0000 C   0  0  0  0  0  0  0  0  0  0  0  0
    0.2369    4.5365    0.0000 N   0  0  0  0  0  0  0  0  0  0  0  0
    0.7561    3.1293    0.0000 C   0  0  0  0  0  0  0  0  0  0  0  0
    2.2376    3.3639    0.0000 O   0  0  0  0  0  0  0  0  0  0  0  0
    0.3943    1.2135    0.0000 C   0  0  0  0  0  0  0  0  0  0  0  0
    1.2760    0.0000    0.0000 C   0  0  0  0  0  0  0  0  0  0  0  0
    0.3943   -1.2135    0.0000 S   0  0  0  0  0  0  0  0  0  0  0  0
   -1.0323   -0.7500    0.0000 C   0  0  0  0  0  0  0  0  0  0  0  0
   -1.0323    0.7500    0.0000 N   0  0  0  0  0  0  0  0  0  0  0  0
   -2.4396   -1.2692    0.0000 C   0  0  0  0  0  0  0  0  0  0  0  0
   -2.2049   -2.7507    0.0000 C   0  0  0  0  0  0  0  0  0  0  0  0
   -3.3706   -3.6947    0.0000 C   0  0  0  0  0  0  0  0  0  0  0  0
   -0.8046   -3.2883    0.0000 C   0  0  0  0  0  0  0  0  0  0  0  0
   -3.9384   -1.2103    0.0000 N   0  0  0  0  0  0  0  0  0  0  0  0
   -5.3006   -0.5823    0.0000 C   0  0  0  0  0  0  0  0  0  0  0  0
   -6.1823   -1.7958    0.0000 O   0  0  0  0  0  0  0  0  0  0  0  0
   -6.3188    0.5192    0.0000 C   0  0  0  0  0  0  0  0  0  0  0  0
   -6.8380    1.9265    0.0000 C   0  0  0  0  0  0  0  0  0  0  0  0
   -8.3195    1.6918    0.0000 C   0  0  0  0  0  0  0  0  0  0  0  0
   -9.2635    2.8575    0.0000 C   0  0  0  0  0  0  0  0  0  0  0  0
  -10.7451    2.6229    0.0000 C   0  0  0  0  0  0  0  0  0  0  0  0
  -11.6890    3.7886    0.0000 C   0  0  0  0  0  0  0  0  0  0  0  0
  -13.1706    3.5540    0.0000 S   0  0  0  0  0  0  0  0  0  0  0  0
  -14.1145    4.7197    0.0000 C   0  0  0  0  0  0  0  0  0  0  0  0
  -13.5770    6.1200    0.0000 O   0  0  0  0  0  0  0  0  0  0  0  0
  -15.5961    4.4850    0.0000 C   0  0  0  0  0  0  0  0  0  0  0  0
  -16.5401    5.6507    0.0000 C   0  0  0  0  0  0  0  0  0  0  0  0
  -18.0216    5.4161    0.0000 C   0  0  0  0  0  0  0  0  0  0  0  0
  -18.9656    6.5818    0.0000 C   0  0  0  0  0  0  0  0  0  0  0  0
  -20.4471    6.3472    0.0000 C   0  0  0  0  0  0  0  0  0  0  0  0
  -21.3911    7.5129    0.0000 C   0  0  0  0  0  0  0  0  0  0  0  0
  -22.8726    7.2782    0.0000 C   0  0  0  0  0  0  0  0  0  0  0  0
   -6.7791    3.4253    0.0000 O   0  0  0  0  0  0  0  0  0  0  0  0
   -6.1511    4.7875    0.0000 C   0  0  0  0  0  0  0  0  0  0  0  0
   -7.3647    5.6692    0.0000 O   0  0  0  0  0  0  0  0  0  0  0  0
   -5.0496    5.8057    0.0000 C   0  0  0  0  0  0  0  0  0  0  0  0
   -5.8334    7.0847    0.0000 C   0  0  0  0  0  0  0  0  0  0  0  0
   -5.1177    8.4029    0.0000 C   0  0  0  0  0  0  0  0  0  0  0  0
   -7.3329    7.0454    0.0000 C   0  0  0  0  0  0  0  0  0  0  0  0
   -3.6424    6.3249    0.0000 N   0  0  0  0  0  0  0  0  0  0  0  0
   -2.1435    6.2660    0.0000 C   0  0  0  0  0  0  0  0  0  0  0  0
   -1.7933    7.7246    0.0000 O   0  0  0  0  0  0  0  0  0  0  0  0
  1  2  1  0
  2  3  2  3
  3  4  1  0
  4  5  1  0
  5  6  2  0
  5  7  1  0
  7  8  2  0
  8  9  1  0
  9 10  1  0
 10 11  2  0
 10 12  1  0
 12 13  1  0
 13 14  1  0
 13 15  1  0
 12 16  1  0
 16 17  1  0
 17 18  2  0
 17 19  1  0
 19 20  1  0
 20 21  1  0
 21 22  2  3
 22 23  1  0
 23 24  1  0
 24 25  1  0
 25 26  1  0
 26 27  2  0
 26 28  1  0
 28 29  1  0
 29 30  1  0
 30 31  1  0
 31 32  1  0
 32 33  1  0
 33 34  1  0
 20 35  1  0
 35 36  1  0
 36 37  2  0
 36 38  1  0
 38 39  1  0
 39 40  1  0
 39 41  1  0
 38 42  1  0
 42 43  1  0
 43 44  2  0
 43  3  1  0
 11  7  1  0
M  END
>  <molecule_chembl_id>  (272) 
CHEMBL3622728

>  <canonical_smiles>  (272) 
CC=C1NC(=O)c2csc(n2)C(C(C)C)NC(=O)CC(C=CCCSC(=O)CCCCCCC)OC(=O)C(C(C)C)NC1=O

>  <pchembl_value_mean>  (272) 
5.56

>  <document_chembl_id>  (272) 
CHEMBL3621100

$$$$

     RDKit          2D

 46 50  0  0  0  0  0  0  0  0999 V2000
   -5.2500   -3.8971    0.0000 C   0  0  0  0  0  0  0  0  0  0  0  0
   -3.7500   -3.8971    0.0000 O   0  0  0  0  0  0  0  0  0  0  0  0
   -3.0000   -2.5981    0.0000 C   0  0  0  0  0  0  0  0  0  0  0  0
   -1.5000   -2.5981    0.0000 C   0  0  0  0  0  0  0  0  0  0  0  0
   -0.7500   -1.2990    0.0000 C   0  0  0  0  0  0  0  0  0  0  0  0
    0.7500   -1.2990    0.0000 C   0  0  0  0  0  0  0  0  0  0  0  0
    1.5000   -2.5981    0.0000 O   0  0  0  0  0  0  0  0  0  0  0  0
    3.0000   -2.5981    0.0000 C   0  0  0  0  0  0  0  0  0  0  0  0
    3.7500   -3.8971    0.0000 C   0  0  0  0  0  0  0  0  0  0  0  0
    5.2500   -3.8971    0.0000 C   0  0  0  0  0  0  0  0  0  0  0  0
    6.0000   -2.5981    0.0000 C   0  0  0  0  0  0  0  0  0  0  0  0
    7.5000   -2.5981    0.0000 N   0  0  0  0  0  0  0  0  0  0  0  0
    8.2500   -3.8971    0.0000 C   0  0  0  0  0  0  0  0  0  0  0  0
    7.5000   -5.1962    0.0000 O   0  0  0  0  0  0  0  0  0  0  0  0
    9.7500   -3.8971    0.0000 C   0  0  0  0  0  0  0  0  0  0  0  0
   10.0105   -2.4199    0.0000 C   0  0  0  0  0  0  0  0  0  0  0  0
    8.8614   -1.4557    0.0000 O   0  0  0  0  0  0  0  0  0  0  0  0
   11.4200   -1.9069    0.0000 N   0  0  0  0  0  0  0  0  0  0  0  0
   11.6805   -0.4297    0.0000 C   0  0  0  0  0  0  0  0  0  0  0  0
   13.0900    0.0834    0.0000 C   0  0  0  0  0  0  0  0  0  0  0  0
   13.3505    1.5606    0.0000 C   0  0  0  0  0  0  0  0  0  0  0  0
   12.2014    2.5248    0.0000 C   0  0  0  0  0  0  0  0  0  0  0  0
   12.4619    4.0020    0.0000 F   0  0  0  0  0  0  0  0  0  0  0  0
   10.7919    2.0117    0.0000 C   0  0  0  0  0  0  0  0  0  0  0  0
   10.5314    0.5345    0.0000 C   0  0  0  0  0  0  0  0  0  0  0  0
   11.1595   -4.4101    0.0000 C   0  0  0  0  0  0  0  0  0  0  0  0
   10.0105   -5.3743    0.0000 C   0  0  0  0  0  0  0  0  0  0  0  0
    5.2500   -1.2990    0.0000 C   0  0  0  0  0  0  0  0  0  0  0  0
    3.7500   -1.2990    0.0000 C   0  0  0  0  0  0  0  0  0  0  0  0
    3.0000   -0.0000    0.0000 F   0  0  0  0  0  0  0  0  0  0  0  0
    1.5000    0.0000    0.0000 C   0  0  0  0  0  0  0  0  0  0  0  0
    0.7500    1.2990    0.0000 C   0  0  0  0  0  0  0  0  0  0  0  0
   -0.7500    1.2990    0.0000 N   0  0  0  0  0  0  0  0  0  0  0  0
   -1.5000    0.0000    0.0000 C   0  0  0  0  0  0  0  0  0  0  0  0
   -3.0000    0.0000    0.0000 C   0  0  0  0  0  0  0  0  0  0  0  0
   -3.7500   -1.2990    0.0000 C   0  0  0  0  0  0  0  0  0  0  0  0
   -5.2500   -1.2990    0.0000 O   0  0  0  0  0  0  0  0  0  0  0  0
   -6.0000    0.0000    0.0000 C   0  0  0  0  0  0  0  0  0  0  0  0
   -7.5000    0.0000    0.0000 C   0  0  0  0  0  0  0  0  0  0  0  0
   -8.2500    1.2990    0.0000 C   0  0  0  0  0  0  0  0  0  0  0  0
   -9.7500    1.2990    0.0000 C   0  0  0  0  0  0  0  0  0  0  0  0
  -10.5000    2.5981    0.0000 C   0  0  0  0  0  0  0  0  0  0  0  0
  -12.0000    2.5981    0.0000 C   0  0  0  0  0  0  0  0  0  0  0  0
  -12.7500    1.2990    0.0000 O   0  0  0  0  0  0  0  0  0  0  0  0
  -12.7500    3.8971    0.0000 N   0  0  0  0  0  0  0  0  0  0  0  0
  -14.2500    3.8971    0.0000 O   0  0  0  0  0  0  0  0  0  0  0  0
  1  2  1  0
  2  3  1  0
  3  4  2  0
  4  5  1  0
  5  6  2  0
  6  7  1  0
  7  8  1  0
  8  9  2  0
  9 10  1  0
 10 11  2  0
 11 12  1  0
 12 13  1  0
 13 14  2  0
 13 15  1  0
 15 16  1  0
 16 17  2  0
 16 18  1  0
 18 19  1  0
 19 20  2  0
 20 21  1  0
 21 22  2  0
 22 23  1  0
 22 24  1  0
 24 25  2  0
 15 26  1  0
 26 27  1  0
 11 28  1  0
 28 29  2  0
 29 30  1  0
  6 31  1  0
 31 32  2  0
 32 33  1  0
 33 34  2  0
 34 35  1  0
 35 36  2  0
 36 37  1  0
 37 38  1  0
 38 39  1  0
 39 40  1  0
 40 41  1  0
 41 42  1  0
 42 43  1  0
 43 44  2  0
 43 45  1  0
 45 46  1  0
 36  3  1  0
 34  5  1  0
 29  8  1  0
 27 15  1  0
 25 19  1  0
M  END
>  <molecule_chembl_id>  (273) 
CHEMBL3911566

>  <canonical_smiles>  (273) 
COc1cc2c(Oc3ccc(NC(=O)C4(C(=O)Nc5ccc(F)cc5)CC4)cc3F)ccnc2cc1OCCCCCC(=O)NO

>  <pchembl_value_mean>  (273) 
5.56

>  <document_chembl_id>  (273) 
CHEMBL3886358

$$$$

     RDKit          2D

 22 23  0  0  0  0  0  0  0  0999 V2000
    3.0000    0.0000    0.0000 C   0  0  0  0  0  0  0  0  0  0  0  0
    1.5000    0.0000    0.0000 C   0  0  0  0  0  0  0  0  0  0  0  0
    0.7500   -1.2990    0.0000 C   0  0  0  0  0  0  0  0  0  0  0  0
   -0.7500   -1.2990    0.0000 C   0  0  0  0  0  0  0  0  0  0  0  0
   -1.5000    0.0000    0.0000 C   0  0  0  0  0  0  0  0  0  0  0  0
   -3.0000    0.0000    0.0000 C   0  0  0  0  0  0  0  0  0  0  0  0
   -3.8817   -1.2135    0.0000 N   0  0  0  0  0  0  0  0  0  0  0  0
   -5.3083   -0.7500    0.0000 O   0  0  0  0  0  0  0  0  0  0  0  0
   -5.3083    0.7500    0.0000 C   0  0  0  0  0  0  0  0  0  0  0  0
   -6.5218    1.6317    0.0000 C   0  0  0  0  0  0  0  0  0  0  0  0
   -6.3650    3.1235    0.0000 C   0  0  0  0  0  0  0  0  0  0  0  0
   -7.5785    4.0051    0.0000 C   0  0  0  0  0  0  0  0  0  0  0  0
   -7.4217    5.4969    0.0000 C   0  0  0  0  0  0  0  0  0  0  0  0
   -8.6353    6.3786    0.0000 C   0  0  0  0  0  0  0  0  0  0  0  0
   -8.4785    7.8704    0.0000 C   0  0  0  0  0  0  0  0  0  0  0  0
   -9.6920    8.7521    0.0000 C   0  0  0  0  0  0  0  0  0  0  0  0
  -11.0623    8.1420    0.0000 O   0  0  0  0  0  0  0  0  0  0  0  0
   -9.5352   10.2438    0.0000 N   0  0  0  0  0  0  0  0  0  0  0  0
  -10.7487   11.1255    0.0000 O   0  0  0  0  0  0  0  0  0  0  0  0
   -3.8817    1.2135    0.0000 N   0  0  0  0  0  0  0  0  0  0  0  0
   -0.7500    1.2990    0.0000 C   0  0  0  0  0  0  0  0  0  0  0  0
    0.7500    1.2990    0.0000 C   0  0  0  0  0  0  0  0  0  0  0  0
  1  2  1  0
  2  3  2  0
  3  4  1  0
  4  5  2  0
  5  6  1  0
  6  7  2  0
  7  8  1  0
  8  9  1  0
  9 10  1  0
 10 11  1  0
 11 12  1  0
 12 13  1  0
 13 14  1  0
 14 15  1  0
 15 16  1  0
 16 17  2  0
 16 18  1  0
 18 19  1  0
  9 20  2  0
  5 21  1  0
 21 22  2  0
 22  2  1  0
 20  6  1  0
M  END
>  <molecule_chembl_id>  (274) 
CHEMBL3585959

>  <canonical_smiles>  (274) 
Cc1ccc(-c2noc(CCCCCCC(=O)NO)n2)cc1

>  <pchembl_value_mean>  (274) 
5.56

>  <document_chembl_id>  (274) 
CHEMBL3585316

$$$$

     RDKit          2D

 19 20  0  0  0  0  0  0  0  0999 V2000
    0.0071  -11.5493    0.0000 O   0  0  0  0  0  0  0  0  0  0  0  0
   -1.2064  -10.6676    0.0000 C   0  0  0  0  0  0  0  0  0  0  0  0
   -1.0496   -9.1759    0.0000 C   0  0  0  0  0  0  0  0  0  0  0  0
    0.3207   -8.5658    0.0000 C   0  0  0  0  0  0  0  0  0  0  0  0
    0.4775   -7.0740    0.0000 C   0  0  0  0  0  0  0  0  0  0  0  0
    1.8478   -6.4639    0.0000 C   0  0  0  0  0  0  0  0  0  0  0  0
    2.0046   -4.9721    0.0000 C   0  0  0  0  0  0  0  0  0  0  0  0
    3.3037   -4.2221    0.0000 C   0  0  0  0  0  0  0  0  0  0  0  0
    2.9918   -2.7549    0.0000 C   0  0  0  0  0  0  0  0  0  0  0  0
    1.5000   -2.5981    0.0000 N   0  0  0  0  0  0  0  0  0  0  0  0
    0.7500   -1.2990    0.0000 C   0  0  0  0  0  0  0  0  0  0  0  0
    1.5000    0.0000    0.0000 C   0  0  0  0  0  0  0  0  0  0  0  0
    0.7500    1.2990    0.0000 C   0  0  0  0  0  0  0  0  0  0  0  0
   -0.7500    1.2990    0.0000 C   0  0  0  0  0  0  0  0  0  0  0  0
   -1.5000    0.0000    0.0000 C   0  0  0  0  0  0  0  0  0  0  0  0
   -0.7500   -1.2990    0.0000 C   0  0  0  0  0  0  0  0  0  0  0  0
    0.8899   -3.9684    0.0000 N   0  0  0  0  0  0  0  0  0  0  0  0
   -2.5767  -11.2778    0.0000 N   0  0  0  0  0  0  0  0  0  0  0  0
   -2.7335  -12.7695    0.0000 O   0  0  0  0  0  0  0  0  0  0  0  0
  1  2  2  0
  2  3  1  0
  3  4  1  0
  4  5  1  0
  5  6  1  0
  6  7  1  0
  7  8  1  0
  8  9  2  0
  9 10  1  0
 10 11  1  0
 11 12  2  0
 12 13  1  0
 13 14  2  0
 14 15  1  0
 15 16  2  0
 10 17  1  0
  2 18  1  0
 18 19  1  0
 17  7  2  0
 16 11  1  0
M  END
>  <molecule_chembl_id>  (275) 
CHEMBL3335288

>  <canonical_smiles>  (275) 
O=C(CCCCc1ccn(-c2ccccc2)n1)NO

>  <pchembl_value_mean>  (275) 
5.56

>  <document_chembl_id>  (275) 
CHEMBL3352093

$$$$

     RDKit          2D

 12 12  0  0  0  0  0  0  0  0999 V2000
    6.0000    0.0000    0.0000 O   0  0  0  0  0  0  0  0  0  0  0  0
    5.2500   -1.2990    0.0000 C   0  0  0  0  0  0  0  0  0  0  0  0
    3.7500   -1.2990    0.0000 C   0  0  0  0  0  0  0  0  0  0  0  0
    3.0000    0.0000    0.0000 C   0  0  0  0  0  0  0  0  0  0  0  0
    1.5000    0.0000    0.0000 C   0  0  0  0  0  0  0  0  0  0  0  0
    0.7500   -1.2990    0.0000 C   0  0  0  0  0  0  0  0  0  0  0  0
   -0.7500   -1.2990    0.0000 C   0  0  0  0  0  0  0  0  0  0  0  0
   -1.5000    0.0000    0.0000 C   0  0  0  0  0  0  0  0  0  0  0  0
   -0.7500    1.2990    0.0000 C   0  0  0  0  0  0  0  0  0  0  0  0
    0.7500    1.2990    0.0000 C   0  0  0  0  0  0  0  0  0  0  0  0
    6.0000   -2.5981    0.0000 N   0  0  0  0  0  0  0  0  0  0  0  0
    7.5000   -2.5981    0.0000 O   0  0  0  0  0  0  0  0  0  0  0  0
  1  2  2  0
  2  3  1  0
  3  4  1  0
  4  5  1  0
  5  6  2  0
  6  7  1  0
  7  8  2  0
  8  9  1  0
  9 10  2  0
  2 11  1  0
 11 12  1  0
 10  5  1  0
M  END
>  <molecule_chembl_id>  (276) 
CHEMBL152162

>  <canonical_smiles>  (276) 
O=C(CCc1ccccc1)NO

>  <pchembl_value_mean>  (276) 
5.57

>  <document_chembl_id>  (276) 
CHEMBL2331470

$$$$

     RDKit          2D

 30 33  0  0  0  0  0  0  0  0999 V2000
    3.7500   -1.2990    0.0000 C   0  0  0  0  0  0  0  0  0  0  0  0
    3.0000    0.0000    0.0000 O   0  0  0  0  0  0  0  0  0  0  0  0
    1.5000    0.0000    0.0000 C   0  0  0  0  0  0  0  0  0  0  0  0
    0.7500   -1.2990    0.0000 C   0  0  0  0  0  0  0  0  0  0  0  0
   -0.7500   -1.2990    0.0000 C   0  0  0  0  0  0  0  0  0  0  0  0
   -1.5000    0.0000    0.0000 C   0  0  0  0  0  0  0  0  0  0  0  0
   -3.0000    0.0000    0.0000 C   0  0  0  0  0  0  0  0  0  0  0  0
   -3.8817   -1.2135    0.0000 N   0  0  0  0  0  0  0  0  0  0  0  0
   -5.3083   -0.7500    0.0000 N   0  0  0  0  0  0  0  0  0  0  0  0
   -6.5218   -1.6317    0.0000 C   0  0  0  0  0  0  0  0  0  0  0  0
   -7.8921   -1.0216    0.0000 C   0  0  0  0  0  0  0  0  0  0  0  0
   -9.1056   -1.9033    0.0000 C   0  0  0  0  0  0  0  0  0  0  0  0
   -8.9488   -3.3950    0.0000 C   0  0  0  0  0  0  0  0  0  0  0  0
   -7.5785   -4.0051    0.0000 C   0  0  0  0  0  0  0  0  0  0  0  0
   -6.3650   -3.1235    0.0000 C   0  0  0  0  0  0  0  0  0  0  0  0
   -5.3083    0.7500    0.0000 C   0  0  0  0  0  0  0  0  0  0  0  0
   -3.8817    1.2135    0.0000 C   0  0  0  0  0  0  0  0  0  0  0  0
   -3.4182    2.6401    0.0000 C   0  0  0  0  0  0  0  0  0  0  0  0
   -4.4218    3.7548    0.0000 C   0  0  0  0  0  0  0  0  0  0  0  0
   -3.9583    5.1814    0.0000 C   0  0  0  0  0  0  0  0  0  0  0  0
   -2.4911    5.4933    0.0000 O   0  0  0  0  0  0  0  0  0  0  0  0
   -4.9620    6.2961    0.0000 N   0  0  0  0  0  0  0  0  0  0  0  0
   -4.4985    7.7227    0.0000 C   0  0  0  0  0  0  0  0  0  0  0  0
   -3.0313    8.0346    0.0000 C   0  0  0  0  0  0  0  0  0  0  0  0
   -2.5677    9.4612    0.0000 C   0  0  0  0  0  0  0  0  0  0  0  0
   -3.5714   10.5759    0.0000 C   0  0  0  0  0  0  0  0  0  0  0  0
   -5.0387   10.2640    0.0000 C   0  0  0  0  0  0  0  0  0  0  0  0
   -5.5022    8.8374    0.0000 C   0  0  0  0  0  0  0  0  0  0  0  0
   -0.7500    1.2990    0.0000 C   0  0  0  0  0  0  0  0  0  0  0  0
    0.7500    1.2990    0.0000 C   0  0  0  0  0  0  0  0  0  0  0  0
  1  2  1  0
  2  3  1  0
  3  4  2  0
  4  5  1  0
  5  6  2  0
  6  7  1  0
  7  8  2  0
  8  9  1  0
  9 10  1  0
 10 11  2  0
 11 12  1  0
 12 13  2  0
 13 14  1  0
 14 15  2  0
  9 16  1  0
 16 17  2  0
 17 18  1  0
 18 19  2  3
 19 20  1  0
 20 21  2  0
 20 22  1  0
 22 23  1  0
 23 24  2  0
 24 25  1  0
 25 26  2  0
 26 27  1  0
 27 28  2  0
  6 29  1  0
 29 30  2  0
 30  3  1  0
 17  7  1  0
 28 23  1  0
 15 10  1  0
M  END
>  <molecule_chembl_id>  (277) 
CHEMBL2047609

>  <canonical_smiles>  (277) 
COc1ccc(-c2nn(-c3ccccc3)cc2C=CC(=O)Nc2ccccc2)cc1

>  <pchembl_value_mean>  (277) 
5.57

>  <document_chembl_id>  (277) 
CHEMBL2046430

$$$$

     RDKit          2D

 35 39  0  0  0  0  0  0  0  0999 V2000
    7.7282  -11.6340    0.0000 C   0  0  0  0  0  0  0  0  0  0  0  0
    6.3579  -11.0239    0.0000 C   0  0  0  0  0  0  0  0  0  0  0  0
    6.2011   -9.5322    0.0000 C   0  0  0  0  0  0  0  0  0  0  0  0
    4.8308   -8.9221    0.0000 C   0  0  0  0  0  0  0  0  0  0  0  0
    4.6740   -7.4303    0.0000 C   0  0  0  0  0  0  0  0  0  0  0  0
    5.8875   -6.5486    0.0000 N   0  0  0  0  0  0  0  0  0  0  0  0
    7.2578   -7.1587    0.0000 C   0  0  0  0  0  0  0  0  0  0  0  0
    7.4146   -8.6505    0.0000 O   0  0  0  0  0  0  0  0  0  0  0  0
    8.4713   -6.2770    0.0000 C   0  0  0  0  0  0  0  0  0  0  0  0
    9.8417   -6.8871    0.0000 C   0  0  0  0  0  0  0  0  0  0  0  0
   10.1535   -8.3543    0.0000 C   0  0  0  0  0  0  0  0  0  0  0  0
   11.6453   -8.5111    0.0000 N   0  0  0  0  0  0  0  0  0  0  0  0
   12.2554   -7.1408    0.0000 C   0  0  0  0  0  0  0  0  0  0  0  0
   13.6820   -6.6773    0.0000 C   0  0  0  0  0  0  0  0  0  0  0  0
   13.9939   -5.2101    0.0000 C   0  0  0  0  0  0  0  0  0  0  0  0
   12.8791   -4.2064    0.0000 C   0  0  0  0  0  0  0  0  0  0  0  0
   11.4526   -4.6699    0.0000 C   0  0  0  0  0  0  0  0  0  0  0  0
   11.1407   -6.1371    0.0000 C   0  0  0  0  0  0  0  0  0  0  0  0
    3.3037   -6.8202    0.0000 C   0  0  0  0  0  0  0  0  0  0  0  0
    2.0046   -7.5702    0.0000 N   0  0  0  0  0  0  0  0  0  0  0  0
    0.8899   -6.5665    0.0000 C   0  0  0  0  0  0  0  0  0  0  0  0
    1.5000   -5.1962    0.0000 C   0  0  0  0  0  0  0  0  0  0  0  0
    0.7500   -3.8971    0.0000 C   0  0  0  0  0  0  0  0  0  0  0  0
    1.5000   -2.5981    0.0000 C   0  0  0  0  0  0  0  0  0  0  0  0
    0.7500   -1.2990    0.0000 C   0  0  0  0  0  0  0  0  0  0  0  0
    1.5000    0.0000    0.0000 C   0  0  0  0  0  0  0  0  0  0  0  0
    0.7500    1.2990    0.0000 C   0  0  0  0  0  0  0  0  0  0  0  0
   -0.7500    1.2990    0.0000 C   0  0  0  0  0  0  0  0  0  0  0  0
   -1.5000    0.0000    0.0000 C   0  0  0  0  0  0  0  0  0  0  0  0
   -0.7500   -1.2990    0.0000 C   0  0  0  0  0  0  0  0  0  0  0  0
   -1.5000   -2.5981    0.0000 N   0  0  0  0  0  0  0  0  0  0  0  0
   -0.7500   -3.8971    0.0000 C   0  0  0  0  0  0  0  0  0  0  0  0
   -1.5000   -5.1962    0.0000 O   0  0  0  0  0  0  0  0  0  0  0  0
   -3.0000   -5.1962    0.0000 C   0  0  0  0  0  0  0  0  0  0  0  0
    2.9918   -5.3529    0.0000 N   0  0  0  0  0  0  0  0  0  0  0  0
  1  2  1  0
  2  3  1  0
  3  4  1  0
  4  5  1  0
  5  6  1  0
  6  7  1  0
  7  8  2  0
  7  9  1  0
  9 10  1  0
 10 11  2  0
 11 12  1  0
 12 13  1  0
 13 14  2  0
 14 15  1  0
 15 16  2  0
 16 17  1  0
 17 18  2  0
  5 19  1  0
 19 20  2  0
 20 21  1  0
 21 22  2  0
 22 23  1  0
 23 24  2  0
 24 25  1  0
 25 26  2  0
 26 27  1  0
 27 28  2  0
 28 29  1  0
 29 30  2  0
 30 31  1  0
 31 32  2  0
 32 33  1  0
 33 34  1  0
 22 35  1  0
 18 10  1  0
 35 19  1  0
 18 13  1  0
 32 23  1  0
 30 25  1  0
M  END
>  <molecule_chembl_id>  (278) 
CHEMBL4874919

>  <canonical_smiles>  (278) 
CCCCC(NC(=O)Cc1c[nH]c2ccccc12)c1ncc(-c2cc3ccccc3nc2OC)[nH]1

>  <pchembl_value_mean>  (278) 
5.57

>  <document_chembl_id>  (278) 
CHEMBL4814059

$$$$

     RDKit          2D

 25 26  0  0  0  0  0  0  0  0999 V2000
    3.0000  -12.9904    0.0000 O   0  0  0  0  0  0  0  0  0  0  0  0
    1.5000  -12.9904    0.0000 C   0  0  0  0  0  0  0  0  0  0  0  0
    0.7500  -11.6913    0.0000 C   0  0  0  0  0  0  0  0  0  0  0  0
    1.5000  -10.3923    0.0000 C   0  0  0  0  0  0  0  0  0  0  0  0
    0.7500   -9.0933    0.0000 C   0  0  0  0  0  0  0  0  0  0  0  0
    1.5000   -7.7942    0.0000 C   0  0  0  0  0  0  0  0  0  0  0  0
    0.7500   -6.4952    0.0000 C   0  0  0  0  0  0  0  0  0  0  0  0
    1.5000   -5.1962    0.0000 C   0  0  0  0  0  0  0  0  0  0  0  0
    0.7500   -3.8971    0.0000 N   0  0  0  0  0  0  0  0  0  0  0  0
    1.5000   -2.5981    0.0000 C   0  0  0  0  0  0  0  0  0  0  0  0
    0.7500   -1.2990    0.0000 C   0  0  0  0  0  0  0  0  0  0  0  0
    1.5000    0.0000    0.0000 C   0  0  0  0  0  0  0  0  0  0  0  0
    0.7500    1.2990    0.0000 C   0  0  0  0  0  0  0  0  0  0  0  0
   -0.7500    1.2990    0.0000 C   0  0  0  0  0  0  0  0  0  0  0  0
   -1.5000    0.0000    0.0000 C   0  0  0  0  0  0  0  0  0  0  0  0
   -0.7500   -1.2990    0.0000 C   0  0  0  0  0  0  0  0  0  0  0  0
   -0.7500   -3.8971    0.0000 C   0  0  0  0  0  0  0  0  0  0  0  0
   -1.5000   -5.1962    0.0000 C   0  0  0  0  0  0  0  0  0  0  0  0
   -3.0000   -5.1962    0.0000 C   0  0  0  0  0  0  0  0  0  0  0  0
   -3.7500   -6.4952    0.0000 C   0  0  0  0  0  0  0  0  0  0  0  0
   -3.0000   -7.7942    0.0000 C   0  0  0  0  0  0  0  0  0  0  0  0
   -1.5000   -7.7942    0.0000 C   0  0  0  0  0  0  0  0  0  0  0  0
   -0.7500   -6.4952    0.0000 C   0  0  0  0  0  0  0  0  0  0  0  0
    0.7500  -14.2894    0.0000 N   0  0  0  0  0  0  0  0  0  0  0  0
    1.5000  -15.5885    0.0000 O   0  0  0  0  0  0  0  0  0  0  0  0
  1  2  2  0
  2  3  1  0
  3  4  1  0
  4  5  1  0
  5  6  1  0
  6  7  1  0
  7  8  1  0
  8  9  1  0
  9 10  1  0
 10 11  1  0
 11 12  2  0
 12 13  1  0
 13 14  2  0
 14 15  1  0
 15 16  2  0
  9 17  1  0
 17 18  1  0
 18 19  2  0
 19 20  1  0
 20 21  2  0
 21 22  1  0
 22 23  2  0
  2 24  1  0
 24 25  1  0
 16 11  1  0
 23 18  1  0
M  END
>  <molecule_chembl_id>  (279) 
CHEMBL4212751

>  <canonical_smiles>  (279) 
O=C(CCCCCCN(Cc1ccccc1)Cc1ccccc1)NO

>  <pchembl_value_mean>  (279) 
5.57

>  <document_chembl_id>  (279) 
CHEMBL4190328

$$$$

     RDKit          2D

 24 26  0  0  0  0  0  0  0  0999 V2000
   -3.0000  -10.3923    0.0000 O   0  0  0  0  0  0  0  0  0  0  0  0
   -1.5000  -10.3923    0.0000 C   0  0  0  0  0  0  0  0  0  0  0  0
   -0.7500   -9.0933    0.0000 C   0  0  0  0  0  0  0  0  0  0  0  0
   -1.5000   -7.7942    0.0000 C   0  0  0  0  0  0  0  0  0  0  0  0
   -0.7500   -6.4952    0.0000 C   0  0  0  0  0  0  0  0  0  0  0  0
   -1.5000   -5.1962    0.0000 C   0  0  0  0  0  0  0  0  0  0  0  0
   -0.7500   -3.8971    0.0000 N   0  0  0  0  0  0  0  0  0  0  0  0
    0.7500   -3.8971    0.0000 C   0  0  0  0  0  0  0  0  0  0  0  0
    1.5000   -2.5981    0.0000 C   0  0  0  0  0  0  0  0  0  0  0  0
    0.7500   -1.2990    0.0000 C   0  0  0  0  0  0  0  0  0  0  0  0
    1.5000    0.0000    0.0000 C   0  0  0  0  0  0  0  0  0  0  0  0
    0.7500    1.2990    0.0000 C   0  0  0  0  0  0  0  0  0  0  0  0
   -0.7500    1.2990    0.0000 C   0  0  0  0  0  0  0  0  0  0  0  0
   -1.5000    0.0000    0.0000 C   0  0  0  0  0  0  0  0  0  0  0  0
   -0.7500   -1.2990    0.0000 C   0  0  0  0  0  0  0  0  0  0  0  0
   -1.5000   -2.5981    0.0000 C   0  0  0  0  0  0  0  0  0  0  0  0
   -3.0000   -2.5981    0.0000 C   0  0  0  0  0  0  0  0  0  0  0  0
   -3.7500   -1.2990    0.0000 C   0  0  0  0  0  0  0  0  0  0  0  0
   -5.2500   -1.2990    0.0000 C   0  0  0  0  0  0  0  0  0  0  0  0
   -6.0000   -2.5981    0.0000 C   0  0  0  0  0  0  0  0  0  0  0  0
   -5.2500   -3.8971    0.0000 C   0  0  0  0  0  0  0  0  0  0  0  0
   -3.7500   -3.8971    0.0000 C   0  0  0  0  0  0  0  0  0  0  0  0
   -0.7500  -11.6913    0.0000 N   0  0  0  0  0  0  0  0  0  0  0  0
   -1.5000  -12.9904    0.0000 O   0  0  0  0  0  0  0  0  0  0  0  0
  1  2  2  0
  2  3  1  0
  3  4  1  0
  4  5  1  0
  5  6  1  0
  6  7  1  0
  7  8  1  0
  8  9  1  0
  9 10  1  0
 10 11  2  0
 11 12  1  0
 12 13  2  0
 13 14  1  0
 14 15  2  0
 15 16  1  0
 16 17  1  0
 17 18  2  0
 18 19  1  0
 19 20  2  0
 20 21  1  0
 21 22  2  0
  2 23  1  0
 23 24  1  0
 16  7  1  0
 22 17  1  0
 15 10  1  0
M  END
>  <molecule_chembl_id>  (280) 
CHEMBL4209843

>  <canonical_smiles>  (280) 
O=C(CCCCN1CCc2ccccc2C1c1ccccc1)NO

>  <pchembl_value_mean>  (280) 
5.57

>  <document_chembl_id>  (280) 
CHEMBL4190328

$$$$

     RDKit          2D

 29 33  0  0  0  0  0  0  0  0999 V2000
   -3.0000  -12.9904    0.0000 O   0  0  0  0  0  0  0  0  0  0  0  0
   -3.7500  -11.6913    0.0000 C   0  0  0  0  0  0  0  0  0  0  0  0
   -3.0000  -10.3923    0.0000 C   0  0  0  0  0  0  0  0  0  0  0  0
   -1.5000  -10.3923    0.0000 C   0  0  0  0  0  0  0  0  0  0  0  0
   -0.7500   -9.0933    0.0000 C   0  0  0  0  0  0  0  0  0  0  0  0
   -1.5000   -7.7942    0.0000 C   0  0  0  0  0  0  0  0  0  0  0  0
   -0.7500   -6.4952    0.0000 C   0  0  0  0  0  0  0  0  0  0  0  0
    0.7500   -6.4952    0.0000 C   0  0  0  0  0  0  0  0  0  0  0  0
    1.5000   -5.1962    0.0000 C   0  0  0  0  0  0  0  0  0  0  0  0
    3.0000   -5.1962    0.0000 C   0  0  0  0  0  0  0  0  0  0  0  0
    3.7500   -3.8971    0.0000 C   0  0  0  0  0  0  0  0  0  0  0  0
    3.0000   -2.5981    0.0000 C   0  0  0  0  0  0  0  0  0  0  0  0
    3.7500   -1.2990    0.0000 O   0  0  0  0  0  0  0  0  0  0  0  0
    1.5000   -2.5981    0.0000 C   0  0  0  0  0  0  0  0  0  0  0  0
    0.7500   -1.2990    0.0000 C   0  0  0  0  0  0  0  0  0  0  0  0
    1.5000    0.0000    0.0000 C   0  0  0  0  0  0  0  0  0  0  0  0
    0.7500    1.2990    0.0000 C   0  0  0  0  0  0  0  0  0  0  0  0
   -0.7500    1.2990    0.0000 C   0  0  0  0  0  0  0  0  0  0  0  0
   -1.5000    0.0000    0.0000 C   0  0  0  0  0  0  0  0  0  0  0  0
    1.7010   -0.7500    0.0000 C   0  0  0  0  0  0  0  0  0  0  0  0
    3.0000   -0.0000    0.0000 C   0  0  0  0  0  0  0  0  0  0  0  0
    2.2500    1.2990    0.0000 C   0  0  0  0  0  0  0  0  0  0  0  0
    2.2500   -1.2990    0.0000 C   0  0  0  0  0  0  0  0  0  0  0  0
   -0.7500   -1.2990    0.0000 C   0  0  0  0  0  0  0  0  0  0  0  0
    0.7500   -3.8971    0.0000 C   0  0  0  0  0  0  0  0  0  0  0  0
    1.5000   -7.7942    0.0000 C   0  0  0  0  0  0  0  0  0  0  0  0
    0.7500   -9.0933    0.0000 C   0  0  0  0  0  0  0  0  0  0  0  0
   -5.2500  -11.6913    0.0000 N   0  0  0  0  0  0  0  0  0  0  0  0
   -6.0000  -12.9904    0.0000 O   0  0  0  0  0  0  0  0  0  0  0  0
  1  2  2  0
  2  3  1  0
  3  4  2  3
  4  5  1  0
  5  6  2  0
  6  7  1  0
  7  8  2  0
  8  9  1  0
  9 10  2  0
 10 11  1  0
 11 12  2  0
 12 13  1  0
 12 14  1  0
 14 15  1  0
 15 16  1  0
 16 17  1  0
 17 18  1  0
 18 19  1  0
 19 20  1  0
 20 21  1  0
 21 22  1  0
 21 23  1  0
 19 24  1  0
 14 25  2  0
  8 26  1  0
 26 27  2  0
  2 28  1  0
 28 29  1  0
 27  5  1  0
 25  9  1  0
 23 15  1  0
 24 15  1  0
 22 17  1  0
M  END
>  <molecule_chembl_id>  (281) 
CHEMBL3235463

>  <canonical_smiles>  (281) 
O=C(C=Cc1ccc(-c2ccc(O)c(C34CC5CC(CC(C5)C3)C4)c2)cc1)NO

>  <pchembl_value_mean>  (281) 
5.58

>  <document_chembl_id>  (281) 
CHEMBL3232764

$$$$

     RDKit          2D

 61 67  0  0  0  0  0  0  0  0999 V2000
    3.5260   -1.2990    0.0000 C   0  0  0  0  0  0  0  0  0  0  0  0
    2.7760    0.0000    0.0000 C   0  0  0  0  0  0  0  0  0  0  0  0
    1.2760    0.0000    0.0000 C   0  0  0  0  0  0  0  0  0  0  0  0
    0.3943    1.2135    0.0000 C   0  0  0  0  0  0  0  0  0  0  0  0
    0.8578    2.6401    0.0000 C   0  0  0  0  0  0  0  0  0  0  0  0
   -1.0323    0.7500    0.0000 C   0  0  0  0  0  0  0  0  0  0  0  0
   -2.7425    1.6861    0.0000 C   0  0  0  0  0  0  0  0  0  0  0  0
   -4.2413    1.6272    0.0000 C   0  0  0  0  0  0  0  0  0  0  0  0
   -5.6035    0.9992    0.0000 N   0  0  0  0  0  0  0  0  0  0  0  0
   -6.6217   -0.1023    0.0000 C   0  0  0  0  0  0  0  0  0  0  0  0
   -7.1409   -1.5096    0.0000 C   0  0  0  0  0  0  0  0  0  0  0  0
   -8.6224   -1.2749    0.0000 C   0  0  0  0  0  0  0  0  0  0  0  0
   -9.5664   -2.4407    0.0000 O   0  0  0  0  0  0  0  0  0  0  0  0
   -9.1600    0.1254    0.0000 O   0  0  0  0  0  0  0  0  0  0  0  0
  -10.6415    0.3601    0.0000 C   0  0  0  0  0  0  0  0  0  0  0  0
   -7.0820   -3.0084    0.0000 C   0  0  0  0  0  0  0  0  0  0  0  0
   -6.4540   -4.3706    0.0000 N   0  0  0  0  0  0  0  0  0  0  0  0
   -5.3525   -5.3888    0.0000 C   0  0  0  0  0  0  0  0  0  0  0  0
   -3.9452   -5.9080    0.0000 C   0  0  0  0  0  0  0  0  0  0  0  0
   -2.4464   -5.8491    0.0000 C   0  0  0  0  0  0  0  0  0  0  0  0
   -1.0842   -5.2211    0.0000 N   0  0  0  0  0  0  0  0  0  0  0  0
   -0.0660   -4.1197    0.0000 C   0  0  0  0  0  0  0  0  0  0  0  0
    0.4532   -2.7124    0.0000 C   0  0  0  0  0  0  0  0  0  0  0  0
    0.3943   -1.2135    0.0000 C   0  0  0  0  0  0  0  0  0  0  0  0
   -1.0323   -0.7500    0.0000 N   0  0  0  0  0  0  0  0  0  0  0  0
    0.3975   -5.5462    0.0000 C   0  0  0  0  0  0  0  0  0  0  0  0
    1.8241   -6.0098    0.0000 C   0  0  0  0  0  0  0  0  0  0  0  0
   -0.8160   -6.4279    0.0000 C   0  0  0  0  0  0  0  0  0  0  0  0
   -0.8160   -7.9279    0.0000 C   0  0  0  0  0  0  0  0  0  0  0  0
   -2.1150   -8.6779    0.0000 C   0  0  0  0  0  0  0  0  0  0  0  0
   -6.7791   -5.8524    0.0000 C   0  0  0  0  0  0  0  0  0  0  0  0
   -7.2426   -7.2790    0.0000 C   0  0  0  0  0  0  0  0  0  0  0  0
   -7.6608   -4.6388    0.0000 C   0  0  0  0  0  0  0  0  0  0  0  0
   -9.1608   -4.6388    0.0000 C   0  0  0  0  0  0  0  0  0  0  0  0
   -9.9108   -5.9379    0.0000 O   0  0  0  0  0  0  0  0  0  0  0  0
   -9.9108   -3.3398    0.0000 O   0  0  0  0  0  0  0  0  0  0  0  0
  -11.4108   -3.3398    0.0000 C   0  0  0  0  0  0  0  0  0  0  0  0
   -7.0852    1.3243    0.0000 C   0  0  0  0  0  0  0  0  0  0  0  0
   -8.5118    1.7878    0.0000 C   0  0  0  0  0  0  0  0  0  0  0  0
   -9.6265    0.7841    0.0000 C   0  0  0  0  0  0  0  0  0  0  0  0
  -11.0531    1.2476    0.0000 C   0  0  0  0  0  0  0  0  0  0  0  0
  -11.3650    2.7149    0.0000 O   0  0  0  0  0  0  0  0  0  0  0  0
  -12.1679    0.2439    0.0000 N   0  0  0  0  0  0  0  0  0  0  0  0
  -13.5944    0.7075    0.0000 C   0  0  0  0  0  0  0  0  0  0  0  0
  -13.9063    2.1747    0.0000 C   0  0  0  0  0  0  0  0  0  0  0  0
  -15.3329    2.6382    0.0000 C   0  0  0  0  0  0  0  0  0  0  0  0
  -16.4476    1.6345    0.0000 C   0  0  0  0  0  0  0  0  0  0  0  0
  -17.8742    2.0980    0.0000 C   0  0  0  0  0  0  0  0  0  0  0  0
  -18.9889    1.0944    0.0000 O   0  0  0  0  0  0  0  0  0  0  0  0
  -18.1861    3.5653    0.0000 N   0  0  0  0  0  0  0  0  0  0  0  0
  -19.6126    4.0288    0.0000 C   0  0  0  0  0  0  0  0  0  0  0  0
  -19.9245    5.4960    0.0000 C   0  0  0  0  0  0  0  0  0  0  0  0
  -21.3511    5.9595    0.0000 C   0  0  0  0  0  0  0  0  0  0  0  0
  -22.4658    4.9558    0.0000 C   0  0  0  0  0  0  0  0  0  0  0  0
  -22.1539    3.4886    0.0000 C   0  0  0  0  0  0  0  0  0  0  0  0
  -20.7274    3.0251    0.0000 C   0  0  0  0  0  0  0  0  0  0  0  0
  -20.4155    1.5579    0.0000 N   0  0  0  0  0  0  0  0  0  0  0  0
  -16.1357    0.1673    0.0000 C   0  0  0  0  0  0  0  0  0  0  0  0
  -14.7092   -0.2962    0.0000 C   0  0  0  0  0  0  0  0  0  0  0  0
   -5.8717    2.2060    0.0000 C   0  0  0  0  0  0  0  0  0  0  0  0
   -5.8717    3.7060    0.0000 C   0  0  0  0  0  0  0  0  0  0  0  0
  1  2  2  0
  2  3  1  0
  3  4  2  0
  4  5  1  0
  4  6  1  0
  6  7  2  0
  7  8  1  0
  8  9  2  0
  9 10  1  0
 10 11  2  0
 11 12  1  0
 12 13  2  0
 12 14  1  0
 14 15  1  0
 11 16  1  0
 16 17  1  0
 17 18  1  0
 18 19  1  0
 19 20  2  0
 20 21  1  0
 21 22  2  0
 22 23  1  0
 23 24  2  0
 24 25  1  0
 22 26  1  0
 26 27  1  0
 26 28  2  0
 28 29  1  0
 29 30  1  0
 18 31  2  0
 31 32  1  0
 31 33  1  0
 33 34  1  0
 34 35  2  0
 34 36  1  0
 36 37  1  0
 10 38  1  0
 38 39  1  0
 39 40  1  0
 40 41  1  0
 41 42  2  0
 41 43  1  0
 43 44  1  0
 44 45  2  0
 45 46  1  0
 46 47  2  0
 47 48  1  0
 48 49  2  0
 48 50  1  0
 50 51  1  0
 51 52  2  0
 52 53  1  0
 53 54  2  0
 54 55  1  0
 55 56  2  0
 56 57  1  0
 47 58  1  0
 58 59  2  0
 38 60  1  0
 60 61  1  0
 24  3  1  0
 59 44  1  0
 25  6  1  0
 56 51  1  0
 60  8  1  0
 33 16  2  0
 28 20  1  0
M  END
>  <molecule_chembl_id>  (282) 
CHEMBL4852895

>  <canonical_smiles>  (282) 
C=Cc1c(C)c2cc3nc(c(C(=O)OC)c4[nH]c(cc5nc(cc1[nH]2)C(C)=C5CC)c(C)c4C(=O)OC)C(CCC(=O)Nc1ccc(C(=O)Nc2ccccc2N)cc1)C3C

>  <pchembl_value_mean>  (282) 
5.58

>  <document_chembl_id>  (282) 
CHEMBL4814003

$$$$

     RDKit          2D

 35 37  0  0  0  0  0  0  0  0999 V2000
    3.0000    0.0000    0.0000 O   0  0  0  0  0  0  0  0  0  0  0  0
    1.5000    0.0000    0.0000 C   0  0  0  0  0  0  0  0  0  0  0  0
    0.7500   -1.2990    0.0000 C   0  0  0  0  0  0  0  0  0  0  0  0
   -0.7500   -1.2990    0.0000 C   0  0  0  0  0  0  0  0  0  0  0  0
   -1.5000    0.0000    0.0000 C   0  0  0  0  0  0  0  0  0  0  0  0
   -0.7500    1.2990    0.0000 C   0  0  0  0  0  0  0  0  0  0  0  0
   -1.5000    2.5981    0.0000 C   0  0  0  0  0  0  0  0  0  0  0  0
   -3.0000    2.5981    0.0000 O   0  0  0  0  0  0  0  0  0  0  0  0
   -0.7500    3.8971    0.0000 N   0  0  0  0  0  0  0  0  0  0  0  0
   -1.5000    5.1962    0.0000 C   0  0  0  0  0  0  0  0  0  0  0  0
   -0.7500    6.4952    0.0000 C   0  0  0  0  0  0  0  0  0  0  0  0
   -1.5000    7.7942    0.0000 C   0  0  0  0  0  0  0  0  0  0  0  0
   -0.7500    9.0933    0.0000 C   0  0  0  0  0  0  0  0  0  0  0  0
   -1.5000   10.3923    0.0000 C   0  0  0  0  0  0  0  0  0  0  0  0
   -0.7500   11.6913    0.0000 C   0  0  0  0  0  0  0  0  0  0  0  0
   -1.5000   12.9904    0.0000 S   0  0  0  0  0  0  0  0  0  0  0  0
   -3.0000    5.1962    0.0000 C   0  0  0  0  0  0  0  0  0  0  0  0
   -3.7500    3.8971    0.0000 O   0  0  0  0  0  0  0  0  0  0  0  0
   -3.7500    6.4952    0.0000 N   0  0  0  0  0  0  0  0  0  0  0  0
   -5.2500    6.4952    0.0000 C   0  0  0  0  0  0  0  0  0  0  0  0
   -6.0000    7.7942    0.0000 C   0  0  0  0  0  0  0  0  0  0  0  0
   -5.2500    9.0933    0.0000 C   0  0  0  0  0  0  0  0  0  0  0  0
   -6.0000   10.3923    0.0000 C   0  0  0  0  0  0  0  0  0  0  0  0
   -7.5000   10.3923    0.0000 C   0  0  0  0  0  0  0  0  0  0  0  0
   -8.2500    9.0933    0.0000 C   0  0  0  0  0  0  0  0  0  0  0  0
   -9.7500    9.0933    0.0000 O   0  0  0  0  0  0  0  0  0  0  0  0
  -10.5000   10.3923    0.0000 C   0  0  0  0  0  0  0  0  0  0  0  0
  -12.0000   10.3923    0.0000 C   0  0  0  0  0  0  0  0  0  0  0  0
  -12.7500   11.6913    0.0000 C   0  0  0  0  0  0  0  0  0  0  0  0
  -14.2500   11.6913    0.0000 C   0  0  0  0  0  0  0  0  0  0  0  0
  -15.0000   10.3923    0.0000 C   0  0  0  0  0  0  0  0  0  0  0  0
  -14.2500    9.0933    0.0000 C   0  0  0  0  0  0  0  0  0  0  0  0
  -12.7500    9.0933    0.0000 C   0  0  0  0  0  0  0  0  0  0  0  0
   -7.5000    7.7942    0.0000 C   0  0  0  0  0  0  0  0  0  0  0  0
    0.7500    1.2990    0.0000 N   0  0  0  0  0  0  0  0  0  0  0  0
  1  2  2  0
  2  3  1  0
  3  4  1  0
  4  5  1  0
  5  6  1  0
  6  7  1  0
  7  8  2  0
  7  9  1  0
  9 10  1  0
 10 11  1  0
 11 12  1  0
 12 13  1  0
 13 14  1  0
 14 15  1  0
 15 16  1  0
 10 17  1  0
 17 18  2  0
 17 19  1  0
 19 20  1  0
 20 21  1  0
 21 22  2  0
 22 23  1  0
 23 24  2  0
 24 25  1  0
 25 26  1  0
 26 27  1  0
 27 28  1  0
 28 29  2  0
 29 30  1  0
 30 31  2  0
 31 32  1  0
 32 33  2  0
 25 34  2  0
  6 35  1  0
 35  2  1  0
 34 21  1  0
 33 28  1  0
M  END
>  <molecule_chembl_id>  (283) 
CHEMBL3356935

>  <canonical_smiles>  (283) 
O=C1CCCC(C(=O)NC(CCCCCS)C(=O)NCc2cccc(OCc3ccccc3)c2)N1

>  <pchembl_value_mean>  (283) 
5.59

>  <document_chembl_id>  (283) 
CHEMBL3352570

$$$$

     RDKit          2D

 33 36  0  0  0  0  0  0  0  0999 V2000
   -4.3786   -5.1199    0.0000 C   0  0  0  0  0  0  0  0  0  0  0  0
   -2.9520   -4.6564    0.0000 C   0  0  0  0  0  0  0  0  0  0  0  0
   -2.6401   -3.1891    0.0000 C   0  0  0  0  0  0  0  0  0  0  0  0
   -1.2135   -2.7256    0.0000 C   0  0  0  0  0  0  0  0  0  0  0  0
   -0.0000   -3.6073    0.0000 N   0  0  0  0  0  0  0  0  0  0  0  0
    1.2135   -2.7256    0.0000 N   0  0  0  0  0  0  0  0  0  0  0  0
    2.6401   -3.1891    0.0000 C   0  0  0  0  0  0  0  0  0  0  0  0
    0.7500   -1.2990    0.0000 C   0  0  0  0  0  0  0  0  0  0  0  0
    1.5000    0.0000    0.0000 C   0  0  0  0  0  0  0  0  0  0  0  0
    3.0000    0.0000    0.0000 O   0  0  0  0  0  0  0  0  0  0  0  0
    0.7500    1.2990    0.0000 N   0  0  0  0  0  0  0  0  0  0  0  0
   -0.7500    1.2990    0.0000 C   0  0  0  0  0  0  0  0  0  0  0  0
   -1.5000    2.5981    0.0000 C   0  0  0  0  0  0  0  0  0  0  0  0
   -0.7500    3.8971    0.0000 C   0  0  0  0  0  0  0  0  0  0  0  0
   -1.5000    5.1962    0.0000 C   0  0  0  0  0  0  0  0  0  0  0  0
   -0.7500    6.4952    0.0000 C   0  0  0  0  0  0  0  0  0  0  0  0
    0.7500    6.4952    0.0000 C   0  0  0  0  0  0  0  0  0  0  0  0
    1.5000    7.7942    0.0000 C   0  0  0  0  0  0  0  0  0  0  0  0
    0.7500    9.0933    0.0000 C   0  0  0  0  0  0  0  0  0  0  0  0
    1.5000   10.3923    0.0000 C   0  0  0  0  0  0  0  0  0  0  0  0
    0.7500   11.6913    0.0000 O   0  0  0  0  0  0  0  0  0  0  0  0
    3.0000   10.3923    0.0000 N   0  0  0  0  0  0  0  0  0  0  0  0
    3.7500   11.6913    0.0000 O   0  0  0  0  0  0  0  0  0  0  0  0
   -0.7500    9.0933    0.0000 C   0  0  0  0  0  0  0  0  0  0  0  0
   -1.5000    7.7942    0.0000 C   0  0  0  0  0  0  0  0  0  0  0  0
   -3.0000    5.1962    0.0000 C   0  0  0  0  0  0  0  0  0  0  0  0
   -3.7500    3.8971    0.0000 C   0  0  0  0  0  0  0  0  0  0  0  0
   -3.0000    2.5981    0.0000 C   0  0  0  0  0  0  0  0  0  0  0  0
   -3.7500    1.2990    0.0000 O   0  0  0  0  0  0  0  0  0  0  0  0
   -5.2500    1.2990    0.0000 C   0  0  0  0  0  0  0  0  0  0  0  0
   -6.0000    0.0000    0.0000 C   0  0  0  0  0  0  0  0  0  0  0  0
   -1.5000    0.0000    0.0000 N   0  0  0  0  0  0  0  0  0  0  0  0
   -0.7500   -1.2990    0.0000 C   0  0  0  0  0  0  0  0  0  0  0  0
  1  2  1  0
  2  3  1  0
  3  4  1  0
  4  5  2  0
  5  6  1  0
  6  7  1  0
  6  8  1  0
  8  9  1  0
  9 10  2  0
  9 11  1  0
 11 12  1  0
 12 13  1  0
 13 14  2  0
 14 15  1  0
 15 16  1  0
 16 17  2  0
 17 18  1  0
 18 19  2  0
 19 20  1  0
 20 21  2  0
 20 22  1  0
 22 23  1  0
 19 24  1  0
 24 25  2  0
 15 26  2  0
 26 27  1  0
 27 28  2  0
 28 29  1  0
 29 30  1  0
 30 31  1  0
 12 32  2  0
 32 33  1  0
 33  4  1  0
 33  8  2  0
 28 13  1  0
 25 16  1  0
M  END
>  <molecule_chembl_id>  (284) 
CHEMBL4216635

>  <canonical_smiles>  (284) 
CCCc1nn(C)c2c(=O)[nH]c(-c3cc(-c4ccc(C(=O)NO)cc4)ccc3OCC)nc12

>  <pchembl_value_mean>  (284) 
5.59

>  <document_chembl_id>  (284) 
CHEMBL4196089

$$$$

     RDKit          2D

 28 30  0  0  0  0  0  0  0  0999 V2000
    3.0000    0.0000    0.0000 N   0  0  0  0  0  0  0  0  0  0  0  0
    1.5000    0.0000    0.0000 C   0  0  0  0  0  0  0  0  0  0  0  0
    0.7500   -1.2990    0.0000 C   0  0  0  0  0  0  0  0  0  0  0  0
   -0.7500   -1.2990    0.0000 C   0  0  0  0  0  0  0  0  0  0  0  0
   -1.5000    0.0000    0.0000 C   0  0  0  0  0  0  0  0  0  0  0  0
   -0.7500    1.2990    0.0000 C   0  0  0  0  0  0  0  0  0  0  0  0
    0.7500    1.2990    0.0000 C   0  0  0  0  0  0  0  0  0  0  0  0
    1.5000    2.5981    0.0000 N   0  0  0  0  0  0  0  0  0  0  0  0
    0.7500    3.8971    0.0000 C   0  0  0  0  0  0  0  0  0  0  0  0
   -0.7500    3.8971    0.0000 O   0  0  0  0  0  0  0  0  0  0  0  0
    1.5000    5.1962    0.0000 C   0  0  0  0  0  0  0  0  0  0  0  0
    0.7500    6.4952    0.0000 C   0  0  0  0  0  0  0  0  0  0  0  0
    1.5000    7.7942    0.0000 C   0  0  0  0  0  0  0  0  0  0  0  0
    0.7500    9.0933    0.0000 C   0  0  0  0  0  0  0  0  0  0  0  0
    1.5000   10.3923    0.0000 C   0  0  0  0  0  0  0  0  0  0  0  0
    0.7500   11.6913    0.0000 C   0  0  0  0  0  0  0  0  0  0  0  0
    1.5000   12.9904    0.0000 C   0  0  0  0  0  0  0  0  0  0  0  0
    0.8899   14.3607    0.0000 N   0  0  0  0  0  0  0  0  0  0  0  0
    2.0046   15.3644    0.0000 C   0  0  0  0  0  0  0  0  0  0  0  0
    1.8478   16.8562    0.0000 C   0  0  0  0  0  0  0  0  0  0  0  0
    3.0613   17.7379    0.0000 C   0  0  0  0  0  0  0  0  0  0  0  0
    2.9046   19.2296    0.0000 C   0  0  0  0  0  0  0  0  0  0  0  0
    1.5342   19.8397    0.0000 C   0  0  0  0  0  0  0  0  0  0  0  0
    1.3774   21.3315    0.0000 F   0  0  0  0  0  0  0  0  0  0  0  0
    0.3207   18.9581    0.0000 C   0  0  0  0  0  0  0  0  0  0  0  0
    0.4775   17.4663    0.0000 C   0  0  0  0  0  0  0  0  0  0  0  0
    3.3037   14.6144    0.0000 N   0  0  0  0  0  0  0  0  0  0  0  0
    2.9918   13.1472    0.0000 O   0  0  0  0  0  0  0  0  0  0  0  0
  1  2  1  0
  2  3  2  0
  3  4  1  0
  4  5  2  0
  5  6  1  0
  6  7  2  0
  7  8  1  0
  8  9  1  0
  9 10  2  0
  9 11  1  0
 11 12  1  0
 12 13  1  0
 13 14  1  0
 14 15  1  0
 15 16  1  0
 16 17  1  0
 17 18  2  0
 18 19  1  0
 19 20  1  0
 20 21  2  0
 21 22  1  0
 22 23  2  0
 23 24  1  0
 23 25  1  0
 25 26  2  0
 19 27  2  0
 27 28  1  0
  7  2  1  0
 28 17  1  0
 26 20  1  0
M  END
>  <molecule_chembl_id>  (285) 
CHEMBL3585973

>  <canonical_smiles>  (285) 
Nc1ccccc1NC(=O)CCCCCCc1nc(-c2ccc(F)cc2)no1

>  <pchembl_value_mean>  (285) 
5.59

>  <document_chembl_id>  (285) 
CHEMBL3585316

$$$$

     RDKit          2D

 31 34  0  0  0  0  0  0  0  0999 V2000
    3.7500    1.2990    0.0000 O   0  0  0  0  0  0  0  0  0  0  0  0
    3.0000    0.0000    0.0000 C   0  0  0  0  0  0  0  0  0  0  0  0
    3.7500   -1.2990    0.0000 N   0  0  0  0  0  0  0  0  0  0  0  0
    5.2500   -1.2990    0.0000 O   0  0  0  0  0  0  0  0  0  0  0  0
    1.5000    0.0000    0.0000 C   0  0  0  0  0  0  0  0  0  0  0  0
    0.7500   -1.2990    0.0000 C   0  0  0  0  0  0  0  0  0  0  0  0
   -0.7500   -1.2990    0.0000 C   0  0  0  0  0  0  0  0  0  0  0  0
   -1.5000    0.0000    0.0000 C   0  0  0  0  0  0  0  0  0  0  0  0
   -3.0000    0.0000    0.0000 C   0  0  0  0  0  0  0  0  0  0  0  0
   -3.7500    1.2990    0.0000 N   0  0  0  0  0  0  0  0  0  0  0  0
   -5.2500    1.2990    0.0000 C   0  0  0  0  0  0  0  0  0  0  0  0
   -6.0000    0.0000    0.0000 O   0  0  0  0  0  0  0  0  0  0  0  0
   -6.0000    2.5981    0.0000 C   0  0  0  0  0  0  0  0  0  0  0  0
   -7.4918    2.7549    0.0000 N   0  0  0  0  0  0  0  0  0  0  0  0
   -7.8037    4.2221    0.0000 C   0  0  0  0  0  0  0  0  0  0  0  0
   -9.1740    4.8322    0.0000 C   0  0  0  0  0  0  0  0  0  0  0  0
   -9.3308    6.3240    0.0000 C   0  0  0  0  0  0  0  0  0  0  0  0
  -10.7011    6.9341    0.0000 C   0  0  0  0  0  0  0  0  0  0  0  0
  -11.9146    6.0524    0.0000 C   0  0  0  0  0  0  0  0  0  0  0  0
  -13.2849    6.6625    0.0000 O   0  0  0  0  0  0  0  0  0  0  0  0
  -11.7578    4.5606    0.0000 C   0  0  0  0  0  0  0  0  0  0  0  0
  -10.3875    3.9505    0.0000 C   0  0  0  0  0  0  0  0  0  0  0  0
   -6.5046    4.9721    0.0000 C   0  0  0  0  0  0  0  0  0  0  0  0
   -5.3899    3.9684    0.0000 C   0  0  0  0  0  0  0  0  0  0  0  0
   -3.9227    4.2803    0.0000 C   0  0  0  0  0  0  0  0  0  0  0  0
   -3.3126    5.6506    0.0000 C   0  0  0  0  0  0  0  0  0  0  0  0
   -1.8208    5.4938    0.0000 C   0  0  0  0  0  0  0  0  0  0  0  0
   -1.5089    4.0266    0.0000 O   0  0  0  0  0  0  0  0  0  0  0  0
   -2.8080    3.2766    0.0000 C   0  0  0  0  0  0  0  0  0  0  0  0
   -0.7500    1.2990    0.0000 C   0  0  0  0  0  0  0  0  0  0  0  0
    0.7500    1.2990    0.0000 C   0  0  0  0  0  0  0  0  0  0  0  0
  1  2  2  0
  2  3  1  0
  3  4  1  0
  2  5  1  0
  5  6  2  0
  6  7  1  0
  7  8  2  0
  8  9  1  0
  9 10  1  0
 10 11  1  0
 11 12  2  0
 11 13  1  0
 13 14  1  0
 14 15  1  0
 15 16  1  0
 16 17  2  0
 17 18  1  0
 18 19  2  0
 19 20  1  0
 19 21  1  0
 21 22  2  0
 15 23  2  0
 23 24  1  0
 24 25  1  0
 25 26  1  0
 26 27  2  0
 27 28  1  0
 28 29  1  0
  8 30  1  0
 30 31  2  0
 31  5  1  0
 24 13  2  0
 29 25  2  0
 22 16  1  0
M  END
>  <molecule_chembl_id>  (286) 
CHEMBL3670661

>  <canonical_smiles>  (286) 
O=C(NO)c1ccc(CNC(=O)c2[nH]c(-c3ccc(O)cc3)cc2-c2ccoc2)cc1

>  <pchembl_value_mean>  (286) 
5.6

>  <document_chembl_id>  (286) 
CHEMBL3638813

$$$$

     RDKit          2D

 25 25  0  0  0  0  0  0  0  0999 V2000
   14.2500   -6.4952    0.0000 C   0  0  0  0  0  0  0  0  0  0  0  0
   12.7500   -6.4952    0.0000 C   0  0  0  0  0  0  0  0  0  0  0  0
   12.0000   -5.1962    0.0000 C   0  0  0  0  0  0  0  0  0  0  0  0
   10.5000   -5.1962    0.0000 C   0  0  0  0  0  0  0  0  0  0  0  0
    9.7500   -3.8971    0.0000 C   0  0  0  0  0  0  0  0  0  0  0  0
    8.2500   -3.8971    0.0000 C   0  0  0  0  0  0  0  0  0  0  0  0
    7.5000   -2.5981    0.0000 C   0  0  0  0  0  0  0  0  0  0  0  0
    8.2500   -1.2990    0.0000 C   0  0  0  0  0  0  0  0  0  0  0  0
    9.7500   -1.2990    0.0000 C   0  0  0  0  0  0  0  0  0  0  0  0
   10.5000    0.0000    0.0000 C   0  0  0  0  0  0  0  0  0  0  0  0
   12.0000    0.0000    0.0000 C   0  0  0  0  0  0  0  0  0  0  0  0
   12.7500   -1.2990    0.0000 O   0  0  0  0  0  0  0  0  0  0  0  0
   12.7500    1.2990    0.0000 N   0  0  0  0  0  0  0  0  0  0  0  0
   14.2500    1.2990    0.0000 O   0  0  0  0  0  0  0  0  0  0  0  0
    6.0000   -2.5981    0.0000 C   0  0  0  0  0  0  0  0  0  0  0  0
    5.2500   -1.2990    0.0000 C   0  0  0  0  0  0  0  0  0  0  0  0
    3.7500   -1.2990    0.0000 C   0  0  0  0  0  0  0  0  0  0  0  0
    3.0000   -2.5981    0.0000 O   0  0  0  0  0  0  0  0  0  0  0  0
    3.0000    0.0000    0.0000 N   0  0  0  0  0  0  0  0  0  0  0  0
    1.5000    0.0000    0.0000 C   0  0  0  0  0  0  0  0  0  0  0  0
    0.7500   -1.2990    0.0000 C   0  0  0  0  0  0  0  0  0  0  0  0
   -0.7500   -1.2990    0.0000 C   0  0  0  0  0  0  0  0  0  0  0  0
   -1.5000    0.0000    0.0000 C   0  0  0  0  0  0  0  0  0  0  0  0
   -0.7500    1.2990    0.0000 C   0  0  0  0  0  0  0  0  0  0  0  0
    0.7500    1.2990    0.0000 C   0  0  0  0  0  0  0  0  0  0  0  0
  1  2  1  0
  2  3  1  0
  3  4  1  0
  4  5  1  0
  5  6  1  0
  6  7  1  0
  7  8  1  0
  8  9  1  0
  9 10  1  0
 10 11  1  0
 11 12  2  0
 11 13  1  0
 13 14  1  0
  7 15  1  0
 15 16  1  0
 16 17  1  0
 17 18  2  0
 17 19  1  0
 19 20  1  0
 20 21  2  0
 21 22  1  0
 22 23  2  0
 23 24  1  0
 24 25  2  0
 25 20  1  0
M  END
>  <molecule_chembl_id>  (287) 
CHEMBL4064944

>  <canonical_smiles>  (287) 
CCCCCCC(CCCC(=O)NO)CCC(=O)Nc1ccccc1

>  <pchembl_value_mean>  (287) 
5.6

>  <document_chembl_id>  (287) 
CHEMBL4052702

$$$$

     RDKit          2D

 28 30  0  0  0  0  0  0  0  0999 V2000
    0.7500   -6.4952    0.0000 C   0  0  0  0  0  0  0  0  0  0  0  0
    1.5000   -5.1962    0.0000 C   0  0  0  0  0  0  0  0  0  0  0  0
    0.7500   -3.8971    0.0000 C   0  0  0  0  0  0  0  0  0  0  0  0
   -0.7500   -3.8971    0.0000 O   0  0  0  0  0  0  0  0  0  0  0  0
    1.5000   -2.5981    0.0000 N   0  0  0  0  0  0  0  0  0  0  0  0
    0.7500   -1.2990    0.0000 C   0  0  0  0  0  0  0  0  0  0  0  0
    1.5000    0.0000    0.0000 C   0  0  0  0  0  0  0  0  0  0  0  0
    0.7500    1.2990    0.0000 C   0  0  0  0  0  0  0  0  0  0  0  0
   -0.7500    1.2990    0.0000 C   0  0  0  0  0  0  0  0  0  0  0  0
   -1.5000    2.5981    0.0000 C   0  0  0  0  0  0  0  0  0  0  0  0
   -3.0000    2.5981    0.0000 O   0  0  0  0  0  0  0  0  0  0  0  0
   -0.7500    3.8971    0.0000 N   0  0  0  0  0  0  0  0  0  0  0  0
   -1.5000    5.1962    0.0000 C   0  0  0  0  0  0  0  0  0  0  0  0
   -0.7500    6.4952    0.0000 C   0  0  0  0  0  0  0  0  0  0  0  0
   -1.5000    7.7942    0.0000 C   0  0  0  0  0  0  0  0  0  0  0  0
   -3.0000    7.7942    0.0000 C   0  0  0  0  0  0  0  0  0  0  0  0
   -3.7500    9.0933    0.0000 F   0  0  0  0  0  0  0  0  0  0  0  0
   -3.7500    6.4952    0.0000 C   0  0  0  0  0  0  0  0  0  0  0  0
   -3.0000    5.1962    0.0000 C   0  0  0  0  0  0  0  0  0  0  0  0
   -3.7500    3.8971    0.0000 N   0  0  0  0  0  0  0  0  0  0  0  0
   -1.5000    0.0000    0.0000 N   0  0  0  0  0  0  0  0  0  0  0  0
   -0.7500   -1.2990    0.0000 C   0  0  0  0  0  0  0  0  0  0  0  0
    3.0000   -5.1962    0.0000 C   0  0  0  0  0  0  0  0  0  0  0  0
    3.7500   -6.4952    0.0000 C   0  0  0  0  0  0  0  0  0  0  0  0
    5.2500   -6.4952    0.0000 C   0  0  0  0  0  0  0  0  0  0  0  0
    6.0000   -5.1962    0.0000 C   0  0  0  0  0  0  0  0  0  0  0  0
    5.2500   -3.8971    0.0000 C   0  0  0  0  0  0  0  0  0  0  0  0
    3.7500   -3.8971    0.0000 C   0  0  0  0  0  0  0  0  0  0  0  0
  1  2  1  0
  2  3  1  0
  3  4  2  0
  3  5  1  0
  5  6  1  0
  6  7  2  0
  7  8  1  0
  8  9  2  0
  9 10  1  0
 10 11  2  0
 10 12  1  0
 12 13  1  0
 13 14  2  0
 14 15  1  0
 15 16  2  0
 16 17  1  0
 16 18  1  0
 18 19  2  0
 19 20  1  0
  9 21  1  0
 21 22  2  0
  2 23  1  0
 23 24  2  0
 24 25  1  0
 25 26  2  0
 26 27  1  0
 27 28  2  0
 22  6  1  0
 28 23  1  0
 19 13  1  0
M  END
>  <molecule_chembl_id>  (288) 
CHEMBL4168051

>  <canonical_smiles>  (288) 
CC(C(=O)Nc1ccc(C(=O)Nc2ccc(F)cc2N)nc1)c1ccccc1

>  <pchembl_value_mean>  (288) 
5.61

>  <document_chembl_id>  (288) 
CHEMBL4130443

$$$$

     RDKit          2D

 30 32  0  0  0  0  0  0  0  0999 V2000
  -10.7086   -9.9084    0.0000 O   0  0  0  0  0  0  0  0  0  0  0  0
   -9.5939  -10.9121    0.0000 C   0  0  0  0  0  0  0  0  0  0  0  0
   -8.1673  -10.4486    0.0000 C   0  0  0  0  0  0  0  0  0  0  0  0
   -7.8555   -8.9814    0.0000 C   0  0  0  0  0  0  0  0  0  0  0  0
   -6.4289   -8.5179    0.0000 C   0  0  0  0  0  0  0  0  0  0  0  0
   -6.1170   -7.0506    0.0000 C   0  0  0  0  0  0  0  0  0  0  0  0
   -4.6904   -6.5871    0.0000 C   0  0  0  0  0  0  0  0  0  0  0  0
   -4.3786   -5.1199    0.0000 C   0  0  0  0  0  0  0  0  0  0  0  0
   -2.9520   -4.6564    0.0000 N   0  0  0  0  0  0  0  0  0  0  0  0
   -2.6401   -3.1891    0.0000 C   0  0  0  0  0  0  0  0  0  0  0  0
   -3.7548   -2.1855    0.0000 O   0  0  0  0  0  0  0  0  0  0  0  0
   -1.2135   -2.7256    0.0000 C   0  0  0  0  0  0  0  0  0  0  0  0
   -0.0000   -3.6073    0.0000 C   0  0  0  0  0  0  0  0  0  0  0  0
   -0.0000   -5.1073    0.0000 C   0  0  0  0  0  0  0  0  0  0  0  0
   -1.2990   -5.8573    0.0000 C   0  0  0  0  0  0  0  0  0  0  0  0
   -1.2990   -7.3573    0.0000 C   0  0  0  0  0  0  0  0  0  0  0  0
   -0.0000   -8.1073    0.0000 C   0  0  0  0  0  0  0  0  0  0  0  0
   -0.0000   -9.6073    0.0000 O   0  0  0  0  0  0  0  0  0  0  0  0
    1.2990   -7.3573    0.0000 C   0  0  0  0  0  0  0  0  0  0  0  0
    1.2990   -5.8573    0.0000 C   0  0  0  0  0  0  0  0  0  0  0  0
    1.2135   -2.7256    0.0000 S   0  0  0  0  0  0  0  0  0  0  0  0
    0.7500   -1.2990    0.0000 C   0  0  0  0  0  0  0  0  0  0  0  0
    1.5000    0.0000    0.0000 C   0  0  0  0  0  0  0  0  0  0  0  0
    0.7500    1.2990    0.0000 C   0  0  0  0  0  0  0  0  0  0  0  0
    1.5000    2.5981    0.0000 O   0  0  0  0  0  0  0  0  0  0  0  0
   -0.7500    1.2990    0.0000 C   0  0  0  0  0  0  0  0  0  0  0  0
   -1.5000    0.0000    0.0000 C   0  0  0  0  0  0  0  0  0  0  0  0
   -0.7500   -1.2990    0.0000 C   0  0  0  0  0  0  0  0  0  0  0  0
   -9.9058  -12.3794    0.0000 N   0  0  0  0  0  0  0  0  0  0  0  0
  -11.3324  -12.8429    0.0000 O   0  0  0  0  0  0  0  0  0  0  0  0
  1  2  2  0
  2  3  1  0
  3  4  1  0
  4  5  1  0
  5  6  1  0
  6  7  1  0
  7  8  1  0
  8  9  1  0
  9 10  1  0
 10 11  2  0
 10 12  1  0
 12 13  2  0
 13 14  1  0
 14 15  2  0
 15 16  1  0
 16 17  2  0
 17 18  1  0
 17 19  1  0
 19 20  2  0
 13 21  1  0
 21 22  1  0
 22 23  2  0
 23 24  1  0
 24 25  1  0
 24 26  2  0
 26 27  1  0
 27 28  2  0
  2 29  1  0
 29 30  1  0
 28 12  1  0
 20 14  1  0
 28 22  1  0
M  END
>  <molecule_chembl_id>  (289) 
CHEMBL4533192

>  <canonical_smiles>  (289) 
O=C(CCCCCCNC(=O)c1c(-c2ccc(O)cc2)sc2cc(O)ccc12)NO

>  <pchembl_value_mean>  (289) 
5.61

>  <document_chembl_id>  (289) 
CHEMBL4422610

$$$$

     RDKit          2D

 27 29  0  0  0  0  0  0  0  0999 V2000
   -0.0000   -5.1073    0.0000 C   0  0  0  0  0  0  0  0  0  0  0  0
   -0.0000   -3.6073    0.0000 C   0  0  0  0  0  0  0  0  0  0  0  0
    1.2135   -2.7256    0.0000 C   0  0  0  0  0  0  0  0  0  0  0  0
    2.6401   -3.1891    0.0000 C   0  0  0  0  0  0  0  0  0  0  0  0
    2.9520   -4.6564    0.0000 N   0  0  0  0  0  0  0  0  0  0  0  0
    4.3786   -5.1199    0.0000 C   0  0  0  0  0  0  0  0  0  0  0  0
    1.8373   -5.6601    0.0000 C   0  0  0  0  0  0  0  0  0  0  0  0
    0.7500   -1.2990    0.0000 C   0  0  0  0  0  0  0  0  0  0  0  0
    1.5000    0.0000    0.0000 C   0  0  0  0  0  0  0  0  0  0  0  0
    0.7500    1.2990    0.0000 C   0  0  0  0  0  0  0  0  0  0  0  0
   -0.7500    1.2990    0.0000 C   0  0  0  0  0  0  0  0  0  0  0  0
   -1.5000    0.0000    0.0000 C   0  0  0  0  0  0  0  0  0  0  0  0
   -0.7500   -1.2990    0.0000 C   0  0  0  0  0  0  0  0  0  0  0  0
   -1.2135   -2.7256    0.0000 N   0  0  0  0  0  0  0  0  0  0  0  0
   -2.6401   -3.1891    0.0000 C   0  0  0  0  0  0  0  0  0  0  0  0
   -3.7548   -2.1855    0.0000 C   0  0  0  0  0  0  0  0  0  0  0  0
   -3.4430   -0.7182    0.0000 C   0  0  0  0  0  0  0  0  0  0  0  0
   -4.5577    0.2855    0.0000 C   0  0  0  0  0  0  0  0  0  0  0  0
   -5.9843   -0.1781    0.0000 C   0  0  0  0  0  0  0  0  0  0  0  0
   -7.0990    0.8256    0.0000 C   0  0  0  0  0  0  0  0  0  0  0  0
   -6.7871    2.2929    0.0000 C   0  0  0  0  0  0  0  0  0  0  0  0
   -7.9018    3.2966    0.0000 C   0  0  0  0  0  0  0  0  0  0  0  0
   -9.3284    2.8330    0.0000 O   0  0  0  0  0  0  0  0  0  0  0  0
   -7.5900    4.7638    0.0000 N   0  0  0  0  0  0  0  0  0  0  0  0
   -8.7047    5.7675    0.0000 O   0  0  0  0  0  0  0  0  0  0  0  0
   -6.2961   -1.6453    0.0000 C   0  0  0  0  0  0  0  0  0  0  0  0
   -5.1814   -2.6490    0.0000 C   0  0  0  0  0  0  0  0  0  0  0  0
  1  2  1  0
  2  3  2  0
  3  4  1  0
  4  5  1  0
  5  6  1  0
  5  7  1  0
  3  8  1  0
  8  9  2  0
  9 10  1  0
 10 11  2  0
 11 12  1  0
 12 13  2  0
 13 14  1  0
 14 15  1  0
 15 16  1  0
 16 17  2  0
 17 18  1  0
 18 19  2  0
 19 20  1  0
 20 21  2  3
 21 22  1  0
 22 23  2  0
 22 24  1  0
 24 25  1  0
 19 26  1  0
 26 27  2  0
 14  2  1  0
 27 16  1  0
 13  8  1  0
M  END
>  <molecule_chembl_id>  (290) 
CHEMBL4079799

>  <canonical_smiles>  (290) 
Cc1c(CN(C)C)c2ccccc2n1Cc1ccc(C=CC(=O)NO)cc1

>  <pchembl_value_mean>  (290) 
5.62

>  <document_chembl_id>  (290) 
CHEMBL3994606

$$$$

     RDKit          2D

 23 24  0  0  0  0  0  0  0  0999 V2000
    3.7500   -1.2990    0.0000 C   0  0  0  0  0  0  0  0  0  0  0  0
    3.0000    0.0000    0.0000 C   0  0  0  0  0  0  0  0  0  0  0  0
    3.7500    1.2990    0.0000 O   0  0  0  0  0  0  0  0  0  0  0  0
    1.5000    0.0000    0.0000 N   0  0  0  0  0  0  0  0  0  0  0  0
    0.7500   -1.2990    0.0000 C   0  0  0  0  0  0  0  0  0  0  0  0
   -0.7500   -1.2990    0.0000 C   0  0  0  0  0  0  0  0  0  0  0  0
   -1.5000    0.0000    0.0000 C   0  0  0  0  0  0  0  0  0  0  0  0
   -2.6491    0.9642    0.0000 N   0  0  0  0  0  0  0  0  0  0  0  0
   -2.3886    2.4414    0.0000 C   0  0  0  0  0  0  0  0  0  0  0  0
   -0.9791    2.9544    0.0000 N   0  0  0  0  0  0  0  0  0  0  0  0
   -0.7186    4.4316    0.0000 C   0  0  0  0  0  0  0  0  0  0  0  0
   -1.8676    5.3958    0.0000 C   0  0  0  0  0  0  0  0  0  0  0  0
   -1.6072    6.8730    0.0000 C   0  0  0  0  0  0  0  0  0  0  0  0
   -2.7562    7.8372    0.0000 O   0  0  0  0  0  0  0  0  0  0  0  0
   -0.1976    7.3861    0.0000 N   0  0  0  0  0  0  0  0  0  0  0  0
    0.0628    8.8633    0.0000 O   0  0  0  0  0  0  0  0  0  0  0  0
   -3.2772    4.8828    0.0000 C   0  0  0  0  0  0  0  0  0  0  0  0
   -3.5377    3.4056    0.0000 N   0  0  0  0  0  0  0  0  0  0  0  0
   -2.6491   -0.9642    0.0000 C   0  0  0  0  0  0  0  0  0  0  0  0
   -4.0586   -0.4512    0.0000 C   0  0  0  0  0  0  0  0  0  0  0  0
   -2.3886   -2.4414    0.0000 C   0  0  0  0  0  0  0  0  0  0  0  0
   -0.7500    1.2990    0.0000 C   0  0  0  0  0  0  0  0  0  0  0  0
    0.7500    1.2990    0.0000 C   0  0  0  0  0  0  0  0  0  0  0  0
  1  2  1  0
  2  3  2  0
  2  4  1  0
  4  5  1  0
  5  6  1  0
  6  7  1  0
  7  8  1  0
  8  9  1  0
  9 10  2  0
 10 11  1  0
 11 12  2  0
 12 13  1  0
 13 14  2  0
 13 15  1  0
 15 16  1  0
 12 17  1  0
 17 18  2  0
  7 19  1  0
 19 20  1  0
 19 21  1  0
  7 22  1  0
 22 23  1  0
 23  4  1  0
 18  9  1  0
M  END
>  <molecule_chembl_id>  (291) 
CHEMBL3916917

>  <canonical_smiles>  (291) 
CC(=O)N1CCC(Nc2ncc(C(=O)NO)cn2)(C(C)C)CC1

>  <pchembl_value_mean>  (291) 
5.62

>  <document_chembl_id>  (291) 
CHEMBL3886590

$$$$

     RDKit          2D

 29 31  0  0  0  0  0  0  0  0999 V2000
    1.5000   -7.7942    0.0000 C   0  0  0  0  0  0  0  0  0  0  0  0
    0.7500   -6.4952    0.0000 C   0  0  0  0  0  0  0  0  0  0  0  0
    1.5000   -5.1962    0.0000 C   0  0  0  0  0  0  0  0  0  0  0  0
    0.7500   -3.8971    0.0000 C   0  0  0  0  0  0  0  0  0  0  0  0
   -0.7500   -3.8971    0.0000 O   0  0  0  0  0  0  0  0  0  0  0  0
    1.5000   -2.5981    0.0000 N   0  0  0  0  0  0  0  0  0  0  0  0
    0.7500   -1.2990    0.0000 C   0  0  0  0  0  0  0  0  0  0  0  0
    1.5000    0.0000    0.0000 C   0  0  0  0  0  0  0  0  0  0  0  0
    0.7500    1.2990    0.0000 C   0  0  0  0  0  0  0  0  0  0  0  0
   -0.7500    1.2990    0.0000 C   0  0  0  0  0  0  0  0  0  0  0  0
   -1.5000    2.5981    0.0000 C   0  0  0  0  0  0  0  0  0  0  0  0
   -3.0000    2.5981    0.0000 O   0  0  0  0  0  0  0  0  0  0  0  0
   -0.7500    3.8971    0.0000 N   0  0  0  0  0  0  0  0  0  0  0  0
   -1.5000    5.1962    0.0000 C   0  0  0  0  0  0  0  0  0  0  0  0
   -0.7500    6.4952    0.0000 C   0  0  0  0  0  0  0  0  0  0  0  0
   -1.5000    7.7942    0.0000 C   0  0  0  0  0  0  0  0  0  0  0  0
   -3.0000    7.7942    0.0000 C   0  0  0  0  0  0  0  0  0  0  0  0
   -3.7500    9.0933    0.0000 F   0  0  0  0  0  0  0  0  0  0  0  0
   -3.7500    6.4952    0.0000 C   0  0  0  0  0  0  0  0  0  0  0  0
   -3.0000    5.1962    0.0000 C   0  0  0  0  0  0  0  0  0  0  0  0
   -3.7500    3.8971    0.0000 N   0  0  0  0  0  0  0  0  0  0  0  0
   -1.5000    0.0000    0.0000 C   0  0  0  0  0  0  0  0  0  0  0  0
   -0.7500   -1.2990    0.0000 C   0  0  0  0  0  0  0  0  0  0  0  0
    3.0000   -5.1962    0.0000 C   0  0  0  0  0  0  0  0  0  0  0  0
    3.7500   -6.4952    0.0000 C   0  0  0  0  0  0  0  0  0  0  0  0
    5.2500   -6.4952    0.0000 C   0  0  0  0  0  0  0  0  0  0  0  0
    6.0000   -5.1962    0.0000 C   0  0  0  0  0  0  0  0  0  0  0  0
    5.2500   -3.8971    0.0000 C   0  0  0  0  0  0  0  0  0  0  0  0
    3.7500   -3.8971    0.0000 C   0  0  0  0  0  0  0  0  0  0  0  0
  1  2  1  0
  2  3  1  0
  3  4  1  0
  4  5  2  0
  4  6  1  0
  6  7  1  0
  7  8  2  0
  8  9  1  0
  9 10  2  0
 10 11  1  0
 11 12  2  0
 11 13  1  0
 13 14  1  0
 14 15  2  0
 15 16  1  0
 16 17  2  0
 17 18  1  0
 17 19  1  0
 19 20  2  0
 20 21  1  0
 10 22  1  0
 22 23  2  0
  3 24  1  0
 24 25  2  0
 25 26  1  0
 26 27  2  0
 27 28  1  0
 28 29  2  0
 23  7  1  0
 29 24  1  0
 20 14  1  0
M  END
>  <molecule_chembl_id>  (292) 
CHEMBL4175686

>  <canonical_smiles>  (292) 
CCC(C(=O)Nc1ccc(C(=O)Nc2ccc(F)cc2N)cc1)c1ccccc1

>  <pchembl_value_mean>  (292) 
5.62

>  <document_chembl_id>  (292) 
CHEMBL4130443

$$$$

     RDKit          2D

 31 34  0  0  0  0  0  0  0  0999 V2000
    3.7500   -1.2990    0.0000 C   0  0  0  0  0  0  0  0  0  0  0  0
    3.0000    0.0000    0.0000 O   0  0  0  0  0  0  0  0  0  0  0  0
    1.5000    0.0000    0.0000 C   0  0  0  0  0  0  0  0  0  0  0  0
    0.7500   -1.2990    0.0000 C   0  0  0  0  0  0  0  0  0  0  0  0
   -0.7500   -1.2990    0.0000 C   0  0  0  0  0  0  0  0  0  0  0  0
   -1.5000    0.0000    0.0000 C   0  0  0  0  0  0  0  0  0  0  0  0
   -3.0000    0.0000    0.0000 C   0  0  0  0  0  0  0  0  0  0  0  0
   -3.8817   -1.2135    0.0000 N   0  0  0  0  0  0  0  0  0  0  0  0
   -5.3083   -0.7500    0.0000 N   0  0  0  0  0  0  0  0  0  0  0  0
   -6.5218   -1.6317    0.0000 C   0  0  0  0  0  0  0  0  0  0  0  0
   -7.8921   -1.0216    0.0000 C   0  0  0  0  0  0  0  0  0  0  0  0
   -9.1056   -1.9033    0.0000 C   0  0  0  0  0  0  0  0  0  0  0  0
   -8.9488   -3.3950    0.0000 C   0  0  0  0  0  0  0  0  0  0  0  0
   -7.5785   -4.0051    0.0000 C   0  0  0  0  0  0  0  0  0  0  0  0
   -6.3650   -3.1235    0.0000 C   0  0  0  0  0  0  0  0  0  0  0  0
   -5.3083    0.7500    0.0000 C   0  0  0  0  0  0  0  0  0  0  0  0
   -3.8817    1.2135    0.0000 C   0  0  0  0  0  0  0  0  0  0  0  0
   -3.4182    2.6401    0.0000 C   0  0  0  0  0  0  0  0  0  0  0  0
   -4.4218    3.7548    0.0000 C   0  0  0  0  0  0  0  0  0  0  0  0
   -3.9583    5.1814    0.0000 C   0  0  0  0  0  0  0  0  0  0  0  0
   -2.4911    5.4933    0.0000 O   0  0  0  0  0  0  0  0  0  0  0  0
   -4.9620    6.2961    0.0000 N   0  0  0  0  0  0  0  0  0  0  0  0
   -4.4985    7.7227    0.0000 C   0  0  0  0  0  0  0  0  0  0  0  0
   -3.0313    8.0346    0.0000 C   0  0  0  0  0  0  0  0  0  0  0  0
   -2.5677    9.4612    0.0000 C   0  0  0  0  0  0  0  0  0  0  0  0
   -3.5714   10.5759    0.0000 C   0  0  0  0  0  0  0  0  0  0  0  0
   -3.1079   12.0025    0.0000 Cl  0  0  0  0  0  0  0  0  0  0  0  0
   -5.0387   10.2640    0.0000 C   0  0  0  0  0  0  0  0  0  0  0  0
   -5.5022    8.8374    0.0000 C   0  0  0  0  0  0  0  0  0  0  0  0
   -0.7500    1.2990    0.0000 C   0  0  0  0  0  0  0  0  0  0  0  0
    0.7500    1.2990    0.0000 C   0  0  0  0  0  0  0  0  0  0  0  0
  1  2  1  0
  2  3  1  0
  3  4  2  0
  4  5  1  0
  5  6  2  0
  6  7  1  0
  7  8  2  0
  8  9  1  0
  9 10  1  0
 10 11  2  0
 11 12  1  0
 12 13  2  0
 13 14  1  0
 14 15  2  0
  9 16  1  0
 16 17  2  0
 17 18  1  0
 18 19  2  3
 19 20  1  0
 20 21  2  0
 20 22  1  0
 22 23  1  0
 23 24  2  0
 24 25  1  0
 25 26  2  0
 26 27  1  0
 26 28  1  0
 28 29  2  0
  6 30  1  0
 30 31  2  0
 31  3  1  0
 17  7  1  0
 29 23  1  0
 15 10  1  0
M  END
>  <molecule_chembl_id>  (293) 
CHEMBL2047610

>  <canonical_smiles>  (293) 
COc1ccc(-c2nn(-c3ccccc3)cc2C=CC(=O)Nc2ccc(Cl)cc2)cc1

>  <pchembl_value_mean>  (293) 
5.63

>  <document_chembl_id>  (293) 
CHEMBL2046430

$$$$

     RDKit          2D

 38 40  0  0  0  0  0  0  0  0999 V2000
    3.0000    0.0000    0.0000 C   0  0  0  0  0  0  0  0  0  0  0  0
    1.5000    0.0000    0.0000 C   0  0  0  0  0  0  0  0  0  0  0  0
    0.7500   -1.2990    0.0000 C   0  0  0  0  0  0  0  0  0  0  0  0
   -0.7500   -1.2990    0.0000 C   0  0  0  0  0  0  0  0  0  0  0  0
   -1.5000   -2.5981    0.0000 C   0  0  0  0  0  0  0  0  0  0  0  0
   -1.5000    0.0000    0.0000 C   0  0  0  0  0  0  0  0  0  0  0  0
   -3.0000    0.0000    0.0000 C   0  0  0  0  0  0  0  0  0  0  0  0
   -3.7500    1.2990    0.0000 N   0  0  0  0  0  0  0  0  0  0  0  0
   -5.2500    1.2990    0.0000 C   0  0  0  0  0  0  0  0  0  0  0  0
   -6.0000    0.0000    0.0000 O   0  0  0  0  0  0  0  0  0  0  0  0
   -6.0000    2.5981    0.0000 C   0  0  0  0  0  0  0  0  0  0  0  0
   -7.4918    2.7549    0.0000 C   0  0  0  0  0  0  0  0  0  0  0  0
   -7.8037    4.2221    0.0000 N   0  0  0  0  0  0  0  0  0  0  0  0
   -6.5046    4.9721    0.0000 N   0  0  0  0  0  0  0  0  0  0  0  0
   -6.3478    6.4639    0.0000 C   0  0  0  0  0  0  0  0  0  0  0  0
   -4.9775    7.0740    0.0000 C   0  0  0  0  0  0  0  0  0  0  0  0
   -4.8207    8.5658    0.0000 C   0  0  0  0  0  0  0  0  0  0  0  0
   -6.0342    9.4474    0.0000 C   0  0  0  0  0  0  0  0  0  0  0  0
   -7.4046    8.8373    0.0000 C   0  0  0  0  0  0  0  0  0  0  0  0
   -8.6181    9.7190    0.0000 N   0  0  0  0  0  0  0  0  0  0  0  0
   -8.4613   11.2108    0.0000 C   0  0  0  0  0  0  0  0  0  0  0  0
   -7.0910   11.8209    0.0000 O   0  0  0  0  0  0  0  0  0  0  0  0
   -9.6748   12.0925    0.0000 C   0  0  0  0  0  0  0  0  0  0  0  0
   -9.5180   13.5843    0.0000 C   0  0  0  0  0  0  0  0  0  0  0  0
  -10.7315   14.4659    0.0000 C   0  0  0  0  0  0  0  0  0  0  0  0
  -10.5748   15.9577    0.0000 C   0  0  0  0  0  0  0  0  0  0  0  0
  -11.7883   16.8394    0.0000 C   0  0  0  0  0  0  0  0  0  0  0  0
  -11.6315   18.3312    0.0000 C   0  0  0  0  0  0  0  0  0  0  0  0
  -12.8450   19.2129    0.0000 C   0  0  0  0  0  0  0  0  0  0  0  0
  -14.2153   18.6027    0.0000 O   0  0  0  0  0  0  0  0  0  0  0  0
  -12.6882   20.7046    0.0000 N   0  0  0  0  0  0  0  0  0  0  0  0
  -13.9017   21.5863    0.0000 O   0  0  0  0  0  0  0  0  0  0  0  0
   -7.5613    7.3456    0.0000 C   0  0  0  0  0  0  0  0  0  0  0  0
   -5.3899    3.9684    0.0000 C   0  0  0  0  0  0  0  0  0  0  0  0
   -3.9227    4.2803    0.0000 C   0  0  0  0  0  0  0  0  0  0  0  0
   -0.7500    1.2990    0.0000 C   0  0  0  0  0  0  0  0  0  0  0  0
   -1.5000    2.5981    0.0000 O   0  0  0  0  0  0  0  0  0  0  0  0
    0.7500    1.2990    0.0000 N   0  0  0  0  0  0  0  0  0  0  0  0
  1  2  1  0
  2  3  2  0
  3  4  1  0
  4  5  1  0
  4  6  2  0
  6  7  1  0
  7  8  1  0
  8  9  1  0
  9 10  2  0
  9 11  1  0
 11 12  1  0
 12 13  2  0
 13 14  1  0
 14 15  1  0
 15 16  2  0
 16 17  1  0
 17 18  2  0
 18 19  1  0
 19 20  1  0
 20 21  1  0
 21 22  2  0
 21 23  1  0
 23 24  1  0
 24 25  1  0
 25 26  1  0
 26 27  1  0
 27 28  1  0
 28 29  1  0
 29 30  2  0
 29 31  1  0
 31 32  1  0
 19 33  2  0
 14 34  1  0
 34 35  1  0
  6 36  1  0
 36 37  2  0
 36 38  1  0
 38  2  1  0
 34 11  2  0
 33 15  1  0
M  END
>  <molecule_chembl_id>  (294) 
CHEMBL4639495

>  <canonical_smiles>  (294) 
Cc1cc(C)c(CNC(=O)c2cnn(-c3cccc(NC(=O)CCCCCCC(=O)NO)c3)c2C)c(=O)[nH]1

>  <pchembl_value_mean>  (294) 
5.63

>  <document_chembl_id>  (294) 
CHEMBL4613315

$$$$

     RDKit          2D

 30 34  0  0  0  0  0  0  0  0999 V2000
    5.2500   -1.2990    0.0000 C   0  0  0  0  0  0  0  0  0  0  0  0
    3.7500   -1.2990    0.0000 O   0  0  0  0  0  0  0  0  0  0  0  0
    3.0000   -2.5981    0.0000 C   0  0  0  0  0  0  0  0  0  0  0  0
    3.7500   -3.8971    0.0000 C   0  0  0  0  0  0  0  0  0  0  0  0
    3.0000   -5.1962    0.0000 C   0  0  0  0  0  0  0  0  0  0  0  0
    1.5000   -5.1962    0.0000 C   0  0  0  0  0  0  0  0  0  0  0  0
    0.7500   -6.4952    0.0000 C   0  0  0  0  0  0  0  0  0  0  0  0
   -0.7500   -6.4952    0.0000 C   0  0  0  0  0  0  0  0  0  0  0  0
   -1.5000   -7.7942    0.0000 C   0  0  0  0  0  0  0  0  0  0  0  0
   -0.7500   -9.0933    0.0000 C   0  0  0  0  0  0  0  0  0  0  0  0
   -1.5000  -10.3923    0.0000 C   0  0  0  0  0  0  0  0  0  0  0  0
   -3.0000  -10.3923    0.0000 C   0  0  0  0  0  0  0  0  0  0  0  0
   -3.7500  -11.6913    0.0000 C   0  0  0  0  0  0  0  0  0  0  0  0
   -3.0000  -12.9904    0.0000 O   0  0  0  0  0  0  0  0  0  0  0  0
   -5.2500  -11.6913    0.0000 N   0  0  0  0  0  0  0  0  0  0  0  0
   -6.0000  -12.9904    0.0000 O   0  0  0  0  0  0  0  0  0  0  0  0
    0.7500   -9.0933    0.0000 C   0  0  0  0  0  0  0  0  0  0  0  0
    1.5000   -7.7942    0.0000 C   0  0  0  0  0  0  0  0  0  0  0  0
    0.7500   -3.8971    0.0000 C   0  0  0  0  0  0  0  0  0  0  0  0
    1.5000   -2.5981    0.0000 C   0  0  0  0  0  0  0  0  0  0  0  0
    0.7500   -1.2990    0.0000 C   0  0  0  0  0  0  0  0  0  0  0  0
    1.5000    0.0000    0.0000 C   0  0  0  0  0  0  0  0  0  0  0  0
    0.7500    1.2990    0.0000 C   0  0  0  0  0  0  0  0  0  0  0  0
   -0.7500    1.2990    0.0000 C   0  0  0  0  0  0  0  0  0  0  0  0
   -1.5000    0.0000    0.0000 C   0  0  0  0  0  0  0  0  0  0  0  0
    1.7010   -0.7500    0.0000 C   0  0  0  0  0  0  0  0  0  0  0  0
    3.0000   -0.0000    0.0000 C   0  0  0  0  0  0  0  0  0  0  0  0
    2.2500    1.2990    0.0000 C   0  0  0  0  0  0  0  0  0  0  0  0
    2.2500   -1.2990    0.0000 C   0  0  0  0  0  0  0  0  0  0  0  0
   -0.7500   -1.2990    0.0000 C   0  0  0  0  0  0  0  0  0  0  0  0
  1  2  1  0
  2  3  1  0
  3  4  2  0
  4  5  1  0
  5  6  2  0
  6  7  1  0
  7  8  2  0
  8  9  1  0
  9 10  2  0
 10 11  1  0
 11 12  2  3
 12 13  1  0
 13 14  2  0
 13 15  1  0
 15 16  1  0
 10 17  1  0
 17 18  2  0
  6 19  1  0
 19 20  2  0
 20 21  1  0
 21 22  1  0
 22 23  1  0
 23 24  1  0
 24 25  1  0
 25 26  1  0
 26 27  1  0
 27 28  1  0
 27 29  1  0
 25 30  1  0
 20  3  1  0
 29 21  1  0
 18  7  1  0
 30 21  1  0
 28 23  1  0
M  END
>  <molecule_chembl_id>  (295) 
CHEMBL3235464

>  <canonical_smiles>  (295) 
COc1ccc(-c2ccc(C=CC(=O)NO)cc2)cc1C12CC3CC(CC(C3)C1)C2

>  <pchembl_value_mean>  (295) 
5.64

>  <document_chembl_id>  (295) 
CHEMBL3232764

$$$$

     RDKit          2D

 23 24  0  0  0  0  0  0  0  0999 V2000
  -12.7500   -6.4952    0.0000 O   0  0  0  0  0  0  0  0  0  0  0  0
  -12.0000   -7.7942    0.0000 C   0  0  0  0  0  0  0  0  0  0  0  0
  -12.7500   -9.0933    0.0000 C   0  0  0  0  0  0  0  0  0  0  0  0
  -14.2500   -9.0933    0.0000 S   0  0  0  0  0  0  0  0  0  0  0  0
  -10.5000   -7.7942    0.0000 N   0  0  0  0  0  0  0  0  0  0  0  0
   -9.7500   -6.4952    0.0000 C   0  0  0  0  0  0  0  0  0  0  0  0
   -8.2500   -6.4952    0.0000 C   0  0  0  0  0  0  0  0  0  0  0  0
   -7.5000   -5.1962    0.0000 C   0  0  0  0  0  0  0  0  0  0  0  0
   -6.0000   -5.1962    0.0000 C   0  0  0  0  0  0  0  0  0  0  0  0
   -5.2500   -3.8971    0.0000 C   0  0  0  0  0  0  0  0  0  0  0  0
   -3.7500   -3.8971    0.0000 C   0  0  0  0  0  0  0  0  0  0  0  0
   -3.0000   -5.1962    0.0000 O   0  0  0  0  0  0  0  0  0  0  0  0
   -3.0000   -2.5981    0.0000 N   0  0  0  0  0  0  0  0  0  0  0  0
   -1.5000   -2.5981    0.0000 C   0  0  0  0  0  0  0  0  0  0  0  0
   -0.7500   -3.8971    0.0000 C   0  0  0  0  0  0  0  0  0  0  0  0
    0.7500   -3.8971    0.0000 C   0  0  0  0  0  0  0  0  0  0  0  0
    1.5000   -2.5981    0.0000 C   0  0  0  0  0  0  0  0  0  0  0  0
    0.7500   -1.2990    0.0000 C   0  0  0  0  0  0  0  0  0  0  0  0
    1.5000    0.0000    0.0000 C   0  0  0  0  0  0  0  0  0  0  0  0
    0.7500    1.2990    0.0000 C   0  0  0  0  0  0  0  0  0  0  0  0
   -0.7500    1.2990    0.0000 C   0  0  0  0  0  0  0  0  0  0  0  0
   -1.5000    0.0000    0.0000 N   0  0  0  0  0  0  0  0  0  0  0  0
   -0.7500   -1.2990    0.0000 C   0  0  0  0  0  0  0  0  0  0  0  0
  1  2  2  0
  2  3  1  0
  3  4  1  0
  2  5  1  0
  5  6  1  0
  6  7  1  0
  7  8  1  0
  8  9  1  0
  9 10  1  0
 10 11  1  0
 11 12  2  0
 11 13  1  0
 13 14  1  0
 14 15  2  0
 15 16  1  0
 16 17  2  0
 17 18  1  0
 18 19  2  0
 19 20  1  0
 20 21  2  0
 21 22  1  0
 22 23  2  0
 23 14  1  0
 23 18  1  0
M  END
>  <molecule_chembl_id>  (296) 
CHEMBL178456

>  <canonical_smiles>  (296) 
O=C(CS)NCCCCCC(=O)Nc1cccc2cccnc12

>  <pchembl_value_mean>  (296) 
5.643333

>  <document_chembl_id>  (296) 
CHEMBL1145385

$$$$

     RDKit          2D

 28 29  0  0  0  0  0  0  0  0999 V2000
    2.0490   -4.6471    0.0000 C   0  0  0  0  0  0  0  0  0  0  0  0
    0.7500   -3.8971    0.0000 C   0  0  0  0  0  0  0  0  0  0  0  0
   -0.5490   -3.1471    0.0000 C   0  0  0  0  0  0  0  0  0  0  0  0
    1.5000   -2.5981    0.0000 N   0  0  0  0  0  0  0  0  0  0  0  0
    0.7500   -1.2990    0.0000 C   0  0  0  0  0  0  0  0  0  0  0  0
    1.5000    0.0000    0.0000 N   0  0  0  0  0  0  0  0  0  0  0  0
    0.7500    1.2990    0.0000 C   0  0  0  0  0  0  0  0  0  0  0  0
   -0.7500    1.2990    0.0000 C   0  0  0  0  0  0  0  0  0  0  0  0
   -1.5000    2.5981    0.0000 C   0  0  0  0  0  0  0  0  0  0  0  0
   -3.0000    2.5981    0.0000 O   0  0  0  0  0  0  0  0  0  0  0  0
   -0.7500    3.8971    0.0000 N   0  0  0  0  0  0  0  0  0  0  0  0
   -1.5000    5.1962    0.0000 O   0  0  0  0  0  0  0  0  0  0  0  0
   -1.5000    0.0000    0.0000 C   0  0  0  0  0  0  0  0  0  0  0  0
   -0.7500   -1.2990    0.0000 N   0  0  0  0  0  0  0  0  0  0  0  0
   -0.0000   -5.1962    0.0000 C   0  0  0  0  0  0  0  0  0  0  0  0
   -1.5000   -5.1962    0.0000 C   0  0  0  0  0  0  0  0  0  0  0  0
   -2.2500   -6.4952    0.0000 C   0  0  0  0  0  0  0  0  0  0  0  0
   -3.7500   -6.4952    0.0000 C   0  0  0  0  0  0  0  0  0  0  0  0
   -5.2500   -6.4952    0.0000 F   0  0  0  0  0  0  0  0  0  0  0  0
   -3.7500   -4.9952    0.0000 F   0  0  0  0  0  0  0  0  0  0  0  0
   -3.7500   -7.9952    0.0000 F   0  0  0  0  0  0  0  0  0  0  0  0
   -1.5000   -7.7942    0.0000 C   0  0  0  0  0  0  0  0  0  0  0  0
   -0.0000   -7.7942    0.0000 C   0  0  0  0  0  0  0  0  0  0  0  0
    0.7500   -9.0933    0.0000 C   0  0  0  0  0  0  0  0  0  0  0  0
    1.5000  -10.3923    0.0000 F   0  0  0  0  0  0  0  0  0  0  0  0
   -0.5490   -9.8433    0.0000 F   0  0  0  0  0  0  0  0  0  0  0  0
    2.0490   -8.3433    0.0000 F   0  0  0  0  0  0  0  0  0  0  0  0
    0.7500   -6.4952    0.0000 C   0  0  0  0  0  0  0  0  0  0  0  0
  1  2  1  0
  2  3  1  0
  2  4  1  0
  4  5  1  0
  5  6  2  0
  6  7  1  0
  7  8  2  0
  8  9  1  0
  9 10  2  0
  9 11  1  0
 11 12  1  0
  8 13  1  0
 13 14  2  0
  2 15  1  0
 15 16  2  0
 16 17  1  0
 17 18  1  0
 18 19  1  0
 18 20  1  0
 18 21  1  0
 17 22  2  0
 22 23  1  0
 23 24  1  0
 24 25  1  0
 24 26  1  0
 24 27  1  0
 23 28  2  0
 14  5  1  0
 28 15  1  0
M  END
>  <molecule_chembl_id>  (297) 
CHEMBL3655969

>  <canonical_smiles>  (297) 
CC(C)(Nc1ncc(C(=O)NO)cn1)c1cc(C(F)(F)F)cc(C(F)(F)F)c1

>  <pchembl_value_mean>  (297) 
5.65

>  <document_chembl_id>  (297) 
CHEMBL3639071

$$$$

     RDKit          2D

 33 36  0  0  0  0  0  0  0  0999 V2000
    6.0000   -0.0000    0.0000 C   0  0  0  0  0  0  0  0  0  0  0  0
    5.2500   -1.2990    0.0000 C   0  0  0  0  0  0  0  0  0  0  0  0
    3.7500   -1.2990    0.0000 O   0  0  0  0  0  0  0  0  0  0  0  0
    3.0000   -2.5981    0.0000 C   0  0  0  0  0  0  0  0  0  0  0  0
    3.7500   -3.8971    0.0000 C   0  0  0  0  0  0  0  0  0  0  0  0
    3.0000   -5.1962    0.0000 C   0  0  0  0  0  0  0  0  0  0  0  0
    1.5000   -5.1962    0.0000 C   0  0  0  0  0  0  0  0  0  0  0  0
    0.7500   -6.4952    0.0000 O   0  0  0  0  0  0  0  0  0  0  0  0
   -0.7500   -6.4952    0.0000 C   0  0  0  0  0  0  0  0  0  0  0  0
   -1.5000   -5.1962    0.0000 C   0  0  0  0  0  0  0  0  0  0  0  0
   -3.0000   -5.1962    0.0000 C   0  0  0  0  0  0  0  0  0  0  0  0
   -3.7500   -6.4952    0.0000 C   0  0  0  0  0  0  0  0  0  0  0  0
   -5.2500   -6.4952    0.0000 C   0  0  0  0  0  0  0  0  0  0  0  0
   -6.0000   -7.7942    0.0000 O   0  0  0  0  0  0  0  0  0  0  0  0
   -6.0000   -5.1962    0.0000 N   0  0  0  0  0  0  0  0  0  0  0  0
   -7.5000   -5.1962    0.0000 O   0  0  0  0  0  0  0  0  0  0  0  0
   -3.0000   -7.7942    0.0000 C   0  0  0  0  0  0  0  0  0  0  0  0
   -1.5000   -7.7942    0.0000 C   0  0  0  0  0  0  0  0  0  0  0  0
    0.7500   -3.8971    0.0000 C   0  0  0  0  0  0  0  0  0  0  0  0
    1.5000   -2.5981    0.0000 C   0  0  0  0  0  0  0  0  0  0  0  0
    0.7500   -1.2990    0.0000 C   0  0  0  0  0  0  0  0  0  0  0  0
    1.5000    0.0000    0.0000 N   0  0  0  0  0  0  0  0  0  0  0  0
    0.7500    1.2990    0.0000 C   0  0  0  0  0  0  0  0  0  0  0  0
    1.2135    2.7256    0.0000 C   0  0  0  0  0  0  0  0  0  0  0  0
    2.6401    3.1891    0.0000 C   0  0  0  0  0  0  0  0  0  0  0  0
    2.9520    4.6564    0.0000 C   0  0  0  0  0  0  0  0  0  0  0  0
    0.0000    3.6073    0.0000 N   0  0  0  0  0  0  0  0  0  0  0  0
   -1.2135    2.7256    0.0000 N   0  0  0  0  0  0  0  0  0  0  0  0
   -2.6401    3.1891    0.0000 C   0  0  0  0  0  0  0  0  0  0  0  0
   -0.7500    1.2990    0.0000 C   0  0  0  0  0  0  0  0  0  0  0  0
   -1.5000    0.0000    0.0000 C   0  0  0  0  0  0  0  0  0  0  0  0
   -3.0000    0.0000    0.0000 O   0  0  0  0  0  0  0  0  0  0  0  0
   -0.7500   -1.2990    0.0000 N   0  0  0  0  0  0  0  0  0  0  0  0
  1  2  1  0
  2  3  1  0
  3  4  1  0
  4  5  2  0
  5  6  1  0
  6  7  2  0
  7  8  1  0
  8  9  1  0
  9 10  2  0
 10 11  1  0
 11 12  2  0
 12 13  1  0
 13 14  2  0
 13 15  1  0
 15 16  1  0
 12 17  1  0
 17 18  2  0
  7 19  1  0
 19 20  2  0
 20 21  1  0
 21 22  2  0
 22 23  1  0
 23 24  1  0
 24 25  1  0
 25 26  1  0
 24 27  2  0
 27 28  1  0
 28 29  1  0
 28 30  1  0
 30 31  1  0
 31 32  2  0
 31 33  1  0
 20  4  1  0
 33 21  1  0
 18  9  1  0
 30 23  2  0
M  END
>  <molecule_chembl_id>  (298) 
CHEMBL3974954

>  <canonical_smiles>  (298) 
CCOc1ccc(Oc2ccc(C(=O)NO)cc2)cc1-c1nc2c(CC)nn(C)c2c(=O)[nH]1

>  <pchembl_value_mean>  (298) 
5.65

>  <document_chembl_id>  (298) 
CHEMBL3860059

$$$$

     RDKit          2D

 15 15  0  0  0  0  0  0  0  0999 V2000
    3.0000   -2.5981    0.0000 O   0  0  0  0  0  0  0  0  0  0  0  0
    3.7500   -1.2990    0.0000 C   0  0  0  0  0  0  0  0  0  0  0  0
    5.2500   -1.2990    0.0000 C   0  0  0  0  0  0  0  0  0  0  0  0
    6.0000   -2.5981    0.0000 C   0  0  0  0  0  0  0  0  0  0  0  0
    7.5000   -2.5981    0.0000 C   0  0  0  0  0  0  0  0  0  0  0  0
    8.2500   -3.8971    0.0000 C   0  0  0  0  0  0  0  0  0  0  0  0
    9.7500   -3.8971    0.0000 C   0  0  0  0  0  0  0  0  0  0  0  0
   10.5000   -5.1962    0.0000 S   0  0  0  0  0  0  0  0  0  0  0  0
    3.0000    0.0000    0.0000 N   0  0  0  0  0  0  0  0  0  0  0  0
    1.5000    0.0000    0.0000 C   0  0  0  0  0  0  0  0  0  0  0  0
    0.7500   -1.2990    0.0000 C   0  0  0  0  0  0  0  0  0  0  0  0
   -0.7500   -1.2990    0.0000 C   0  0  0  0  0  0  0  0  0  0  0  0
   -1.5000    0.0000    0.0000 C   0  0  0  0  0  0  0  0  0  0  0  0
   -0.7500    1.2990    0.0000 C   0  0  0  0  0  0  0  0  0  0  0  0
    0.7500    1.2990    0.0000 C   0  0  0  0  0  0  0  0  0  0  0  0
  1  2  2  0
  2  3  1  0
  3  4  1  0
  4  5  1  0
  5  6  1  0
  6  7  1  0
  7  8  1  0
  2  9  1  0
  9 10  1  0
 10 11  2  0
 11 12  1  0
 12 13  2  0
 13 14  1  0
 14 15  2  0
 15 10  1  0
M  END
>  <molecule_chembl_id>  (299) 
CHEMBL109654

>  <canonical_smiles>  (299) 
O=C(CCCCCS)Nc1ccccc1

>  <pchembl_value_mean>  (299) 
5.65

>  <document_chembl_id>  (299) 
CHEMBL3352570

$$$$

     RDKit          2D

 37 40  0  0  0  0  0  0  0  0999 V2000
    3.7500    1.2990    0.0000 O   0  0  0  0  0  0  0  0  0  0  0  0
    3.0000   -0.0000    0.0000 C   0  0  0  0  0  0  0  0  0  0  0  0
    3.7500   -1.2990    0.0000 N   0  0  0  0  0  0  0  0  0  0  0  0
    5.2500   -1.2990    0.0000 O   0  0  0  0  0  0  0  0  0  0  0  0
    1.5000   -0.0000    0.0000 C   0  0  0  0  0  0  0  0  0  0  0  0
    0.7500   -1.2990    0.0000 C   0  0  0  0  0  0  0  0  0  0  0  0
   -0.7500   -1.2990    0.0000 C   0  0  0  0  0  0  0  0  0  0  0  0
   -1.5000   -0.0000    0.0000 C   0  0  0  0  0  0  0  0  0  0  0  0
   -3.0000   -0.0000    0.0000 C   0  0  0  0  0  0  0  0  0  0  0  0
   -3.7500    1.2990    0.0000 N   0  0  0  0  0  0  0  0  0  0  0  0
   -5.2500    1.2990    0.0000 C   0  0  0  0  0  0  0  0  0  0  0  0
   -6.0000    0.0000    0.0000 C   0  0  0  0  0  0  0  0  0  0  0  0
   -7.4918   -0.1568    0.0000 N   0  0  0  0  0  0  0  0  0  0  0  0
   -7.8037   -1.6240    0.0000 N   0  0  0  0  0  0  0  0  0  0  0  0
   -6.5046   -2.3740    0.0000 N   0  0  0  0  0  0  0  0  0  0  0  0
   -5.3899   -1.3703    0.0000 N   0  0  0  0  0  0  0  0  0  0  0  0
   -3.9227   -1.6822    0.0000 C   0  0  0  0  0  0  0  0  0  0  0  0
   -3.4591   -3.1088    0.0000 C   0  0  0  0  0  0  0  0  0  0  0  0
   -1.9919   -3.4206    0.0000 C   0  0  0  0  0  0  0  0  0  0  0  0
   -1.5284   -4.8472    0.0000 C   0  0  0  0  0  0  0  0  0  0  0  0
   -2.5321   -5.9619    0.0000 C   0  0  0  0  0  0  0  0  0  0  0  0
   -3.9993   -5.6501    0.0000 C   0  0  0  0  0  0  0  0  0  0  0  0
   -4.4628   -4.2235    0.0000 C   0  0  0  0  0  0  0  0  0  0  0  0
   -3.0000    2.5981    0.0000 C   0  0  0  0  0  0  0  0  0  0  0  0
   -3.7500    3.8971    0.0000 O   0  0  0  0  0  0  0  0  0  0  0  0
   -1.5000    2.5981    0.0000 C   0  0  0  0  0  0  0  0  0  0  0  0
   -0.7500    1.2990    0.0000 C   0  0  0  0  0  0  0  0  0  0  0  0
    0.7500    1.2990    0.0000 C   0  0  0  0  0  0  0  0  0  0  0  0
    1.5000    2.5981    0.0000 C   0  0  0  0  0  0  0  0  0  0  0  0
    0.7500    3.8971    0.0000 C   0  0  0  0  0  0  0  0  0  0  0  0
   -0.7500    3.8971    0.0000 C   0  0  0  0  0  0  0  0  0  0  0  0
   -1.5000    5.1962    0.0000 C   0  0  0  0  0  0  0  0  0  0  0  0
   -2.2500    6.4952    0.0000 F   0  0  0  0  0  0  0  0  0  0  0  0
   -0.2010    5.9462    0.0000 F   0  0  0  0  0  0  0  0  0  0  0  0
   -2.7990    4.4462    0.0000 F   0  0  0  0  0  0  0  0  0  0  0  0
   -0.7500    1.2990    0.0000 C   0  0  0  0  0  0  0  0  0  0  0  0
    0.7500    1.2990    0.0000 C   0  0  0  0  0  0  0  0  0  0  0  0
  1  2  2  0
  2  3  1  0
  3  4  1  0
  2  5  1  0
  5  6  2  0
  6  7  1  0
  7  8  2  0
  8  9  1  0
  9 10  1  0
 10 11  1  0
 11 12  1  0
 12 13  2  0
 13 14  1  0
 14 15  2  0
 15 16  1  0
 16 17  1  0
 17 18  1  0
 18 19  2  0
 19 20  1  0
 20 21  2  0
 21 22  1  0
 22 23  2  0
 10 24  1  0
 24 25  2  0
 24 26  1  0
 26 27  2  0
 27 28  1  0
 28 29  2  0
 29 30  1  0
 30 31  2  0
 31 32  1  0
 32 33  1  0
 32 34  1  0
 32 35  1  0
  8 36  1  0
 36 37  2  0
 37  5  1  0
 16 12  1  0
 23 18  1  0
 31 26  1  0
M  END
>  <molecule_chembl_id>  (300) 
CHEMBL4800426

>  <canonical_smiles>  (300) 
O=C(NO)c1ccc(CN(Cc2nnnn2Cc2ccccc2)C(=O)c2ccccc2C(F)(F)F)cc1

>  <pchembl_value_mean>  (300) 
5.65

>  <document_chembl_id>  (300) 
CHEMBL4725369

$$$$

     RDKit          2D

 16 17  0  0  0  0  0  0  0  0999 V2000
    3.0000    0.0000    0.0000 N   0  0  0  0  0  0  0  0  0  0  0  0
    1.5000    0.0000    0.0000 C   0  0  0  0  0  0  0  0  0  0  0  0
    0.7500   -1.2990    0.0000 C   0  0  0  0  0  0  0  0  0  0  0  0
   -0.7500   -1.2990    0.0000 C   0  0  0  0  0  0  0  0  0  0  0  0
   -1.5000    0.0000    0.0000 C   0  0  0  0  0  0  0  0  0  0  0  0
   -0.7500    1.2990    0.0000 C   0  0  0  0  0  0  0  0  0  0  0  0
    0.7500    1.2990    0.0000 C   0  0  0  0  0  0  0  0  0  0  0  0
    1.5000    2.5981    0.0000 N   0  0  0  0  0  0  0  0  0  0  0  0
    0.7500    3.8971    0.0000 C   0  0  0  0  0  0  0  0  0  0  0  0
   -0.7500    3.8971    0.0000 O   0  0  0  0  0  0  0  0  0  0  0  0
    1.5000    5.1962    0.0000 C   0  0  0  0  0  0  0  0  0  0  0  0
    3.0000    5.1962    0.0000 C   0  0  0  0  0  0  0  0  0  0  0  0
    3.7500    6.4952    0.0000 N   0  0  0  0  0  0  0  0  0  0  0  0
    3.0000    7.7942    0.0000 C   0  0  0  0  0  0  0  0  0  0  0  0
    1.5000    7.7942    0.0000 C   0  0  0  0  0  0  0  0  0  0  0  0
    0.7500    6.4952    0.0000 N   0  0  0  0  0  0  0  0  0  0  0  0
  1  2  1  0
  2  3  2  0
  3  4  1  0
  4  5  2  0
  5  6  1  0
  6  7  2  0
  7  8  1  0
  8  9  1  0
  9 10  2  0
  9 11  1  0
 11 12  2  0
 12 13  1  0
 13 14  2  0
 14 15  1  0
 15 16  2  0
  7  2  1  0
 16 11  1  0
M  END
>  <molecule_chembl_id>  (301) 
CHEMBL4283263

>  <canonical_smiles>  (301) 
Nc1ccccc1NC(=O)c1cnccn1

>  <pchembl_value_mean>  (301) 
5.66

>  <document_chembl_id>  (301) 
CHEMBL4400533

$$$$

     RDKit          2D

 29 32  0  0  0  0  0  0  0  0999 V2000
    1.5000   -5.1962    0.0000 C   0  0  0  0  0  0  0  0  0  0  0  0
    0.7500   -3.8971    0.0000 C   0  0  0  0  0  0  0  0  0  0  0  0
    1.5000   -2.5981    0.0000 N   0  0  0  0  0  0  0  0  0  0  0  0
    0.7500   -1.2990    0.0000 C   0  0  0  0  0  0  0  0  0  0  0  0
    1.5000    0.0000    0.0000 C   0  0  0  0  0  0  0  0  0  0  0  0
    0.7500    1.2990    0.0000 C   0  0  0  0  0  0  0  0  0  0  0  0
    1.5000    2.5981    0.0000 C   0  0  0  0  0  0  0  0  0  0  0  0
    3.0000    2.5981    0.0000 C   0  0  0  0  0  0  0  0  0  0  0  0
    3.7500    3.8971    0.0000 C   0  0  0  0  0  0  0  0  0  0  0  0
    3.0000    5.1962    0.0000 O   0  0  0  0  0  0  0  0  0  0  0  0
    5.2500    3.8971    0.0000 N   0  0  0  0  0  0  0  0  0  0  0  0
    6.0000    5.1962    0.0000 O   0  0  0  0  0  0  0  0  0  0  0  0
   -0.7500    1.2990    0.0000 C   0  0  0  0  0  0  0  0  0  0  0  0
   -1.5000    0.0000    0.0000 C   0  0  0  0  0  0  0  0  0  0  0  0
   -0.7500   -1.2990    0.0000 C   0  0  0  0  0  0  0  0  0  0  0  0
   -1.5000   -2.5981    0.0000 C   0  0  0  0  0  0  0  0  0  0  0  0
   -3.0000   -2.5981    0.0000 O   0  0  0  0  0  0  0  0  0  0  0  0
   -0.7500   -3.8971    0.0000 N   0  0  0  0  0  0  0  0  0  0  0  0
   -1.5000   -5.1962    0.0000 C   0  0  0  0  0  0  0  0  0  0  0  0
   -3.0000   -5.1962    0.0000 C   0  0  0  0  0  0  0  0  0  0  0  0
   -3.7500   -6.4952    0.0000 C   0  0  0  0  0  0  0  0  0  0  0  0
   -3.1399   -7.8655    0.0000 C   0  0  0  0  0  0  0  0  0  0  0  0
   -4.2546   -8.8692    0.0000 N   0  0  0  0  0  0  0  0  0  0  0  0
   -5.5537   -8.1192    0.0000 C   0  0  0  0  0  0  0  0  0  0  0  0
   -6.9802   -8.5827    0.0000 C   0  0  0  0  0  0  0  0  0  0  0  0
   -8.0950   -7.5790    0.0000 C   0  0  0  0  0  0  0  0  0  0  0  0
   -7.7831   -6.1118    0.0000 C   0  0  0  0  0  0  0  0  0  0  0  0
   -6.3565   -5.6483    0.0000 C   0  0  0  0  0  0  0  0  0  0  0  0
   -5.2418   -6.6520    0.0000 C   0  0  0  0  0  0  0  0  0  0  0  0
  1  2  1  0
  2  3  2  0
  3  4  1  0
  4  5  2  0
  5  6  1  0
  6  7  1  0
  7  8  2  3
  8  9  1  0
  9 10  2  0
  9 11  1  0
 11 12  1  0
  6 13  2  0
 13 14  1  0
 14 15  2  0
 15 16  1  0
 16 17  2  0
 16 18  1  0
 18 19  1  0
 19 20  1  0
 20 21  1  0
 21 22  2  0
 22 23  1  0
 23 24  1  0
 24 25  2  0
 25 26  1  0
 26 27  2  0
 27 28  1  0
 28 29  2  0
 18  2  1  0
 29 21  1  0
 15  4  1  0
 29 24  1  0
M  END
>  <molecule_chembl_id>  (302) 
CHEMBL2425959

>  <canonical_smiles>  (302) 
Cc1nc2cc(C=CC(=O)NO)ccc2c(=O)n1CCc1c[nH]c2ccccc12

>  <pchembl_value_mean>  (302) 
5.66

>  <document_chembl_id>  (302) 
CHEMBL2424579

$$$$

     RDKit          2D

 31 34  0  0  0  0  0  0  0  0999 V2000
    3.7500   -1.2990    0.0000 C   0  0  0  0  0  0  0  0  0  0  0  0
    3.0000    0.0000    0.0000 O   0  0  0  0  0  0  0  0  0  0  0  0
    1.5000    0.0000    0.0000 C   0  0  0  0  0  0  0  0  0  0  0  0
    0.7500   -1.2990    0.0000 C   0  0  0  0  0  0  0  0  0  0  0  0
   -0.7500   -1.2990    0.0000 C   0  0  0  0  0  0  0  0  0  0  0  0
   -1.5000    0.0000    0.0000 C   0  0  0  0  0  0  0  0  0  0  0  0
   -3.0000    0.0000    0.0000 C   0  0  0  0  0  0  0  0  0  0  0  0
   -3.8817   -1.2135    0.0000 N   0  0  0  0  0  0  0  0  0  0  0  0
   -5.3083   -0.7500    0.0000 N   0  0  0  0  0  0  0  0  0  0  0  0
   -6.5218   -1.6317    0.0000 C   0  0  0  0  0  0  0  0  0  0  0  0
   -7.8921   -1.0216    0.0000 C   0  0  0  0  0  0  0  0  0  0  0  0
   -9.1056   -1.9033    0.0000 C   0  0  0  0  0  0  0  0  0  0  0  0
   -8.9488   -3.3950    0.0000 C   0  0  0  0  0  0  0  0  0  0  0  0
   -7.5785   -4.0051    0.0000 C   0  0  0  0  0  0  0  0  0  0  0  0
   -6.3650   -3.1235    0.0000 C   0  0  0  0  0  0  0  0  0  0  0  0
   -5.3083    0.7500    0.0000 C   0  0  0  0  0  0  0  0  0  0  0  0
   -3.8817    1.2135    0.0000 C   0  0  0  0  0  0  0  0  0  0  0  0
   -3.4182    2.6401    0.0000 C   0  0  0  0  0  0  0  0  0  0  0  0
   -4.4218    3.7548    0.0000 C   0  0  0  0  0  0  0  0  0  0  0  0
   -3.9583    5.1814    0.0000 C   0  0  0  0  0  0  0  0  0  0  0  0
   -2.4911    5.4933    0.0000 O   0  0  0  0  0  0  0  0  0  0  0  0
   -4.9620    6.2961    0.0000 N   0  0  0  0  0  0  0  0  0  0  0  0
   -4.4985    7.7227    0.0000 C   0  0  0  0  0  0  0  0  0  0  0  0
   -3.0313    8.0346    0.0000 C   0  0  0  0  0  0  0  0  0  0  0  0
   -2.5677    9.4612    0.0000 C   0  0  0  0  0  0  0  0  0  0  0  0
   -3.5714   10.5759    0.0000 C   0  0  0  0  0  0  0  0  0  0  0  0
   -3.1079   12.0025    0.0000 Br  0  0  0  0  0  0  0  0  0  0  0  0
   -5.0387   10.2640    0.0000 C   0  0  0  0  0  0  0  0  0  0  0  0
   -5.5022    8.8374    0.0000 C   0  0  0  0  0  0  0  0  0  0  0  0
   -0.7500    1.2990    0.0000 C   0  0  0  0  0  0  0  0  0  0  0  0
    0.7500    1.2990    0.0000 C   0  0  0  0  0  0  0  0  0  0  0  0
  1  2  1  0
  2  3  1  0
  3  4  2  0
  4  5  1  0
  5  6  2  0
  6  7  1  0
  7  8  2  0
  8  9  1  0
  9 10  1  0
 10 11  2  0
 11 12  1  0
 12 13  2  0
 13 14  1  0
 14 15  2  0
  9 16  1  0
 16 17  2  0
 17 18  1  0
 18 19  2  3
 19 20  1  0
 20 21  2  0
 20 22  1  0
 22 23  1  0
 23 24  2  0
 24 25  1  0
 25 26  2  0
 26 27  1  0
 26 28  1  0
 28 29  2  0
  6 30  1  0
 30 31  2  0
 31  3  1  0
 17  7  1  0
 29 23  1  0
 15 10  1  0
M  END
>  <molecule_chembl_id>  (303) 
CHEMBL2047611

>  <canonical_smiles>  (303) 
COc1ccc(-c2nn(-c3ccccc3)cc2C=CC(=O)Nc2ccc(Br)cc2)cc1

>  <pchembl_value_mean>  (303) 
5.66

>  <document_chembl_id>  (303) 
CHEMBL2046430

$$$$

     RDKit          2D

 24 25  0  0  0  0  0  0  0  0999 V2000
    3.7500    1.2990    0.0000 O   0  0  0  0  0  0  0  0  0  0  0  0
    3.0000    0.0000    0.0000 C   0  0  0  0  0  0  0  0  0  0  0  0
    3.7500   -1.2990    0.0000 N   0  0  0  0  0  0  0  0  0  0  0  0
    5.2500   -1.2990    0.0000 O   0  0  0  0  0  0  0  0  0  0  0  0
    1.5000    0.0000    0.0000 C   0  0  0  0  0  0  0  0  0  0  0  0
    0.7500   -1.2990    0.0000 C   0  0  0  0  0  0  0  0  0  0  0  0
   -0.7500   -1.2990    0.0000 C   0  0  0  0  0  0  0  0  0  0  0  0
   -1.5000    0.0000    0.0000 C   0  0  0  0  0  0  0  0  0  0  0  0
   -3.0000    0.0000    0.0000 C   0  0  0  0  0  0  0  0  0  0  0  0
   -3.7500    1.2990    0.0000 N   0  0  0  0  0  0  0  0  0  0  0  0
   -5.2500    1.2990    0.0000 C   0  0  0  0  0  0  0  0  0  0  0  0
   -6.0000    2.5981    0.0000 C   0  0  0  0  0  0  0  0  0  0  0  0
   -7.5000    2.5981    0.0000 O   0  0  0  0  0  0  0  0  0  0  0  0
   -3.0000    2.5981    0.0000 C   0  0  0  0  0  0  0  0  0  0  0  0
   -1.5000    2.5981    0.0000 O   0  0  0  0  0  0  0  0  0  0  0  0
   -3.7500    3.8971    0.0000 C   0  0  0  0  0  0  0  0  0  0  0  0
   -3.0000    5.1962    0.0000 C   0  0  0  0  0  0  0  0  0  0  0  0
   -1.5000    5.1962    0.0000 C   0  0  0  0  0  0  0  0  0  0  0  0
   -0.7500    6.4952    0.0000 C   0  0  0  0  0  0  0  0  0  0  0  0
   -1.5000    7.7942    0.0000 C   0  0  0  0  0  0  0  0  0  0  0  0
   -3.0000    7.7942    0.0000 C   0  0  0  0  0  0  0  0  0  0  0  0
   -3.7500    6.4952    0.0000 C   0  0  0  0  0  0  0  0  0  0  0  0
   -0.7500    1.2990    0.0000 C   0  0  0  0  0  0  0  0  0  0  0  0
    0.7500    1.2990    0.0000 C   0  0  0  0  0  0  0  0  0  0  0  0
  1  2  2  0
  2  3  1  0
  3  4  1  0
  2  5  1  0
  5  6  2  0
  6  7  1  0
  7  8  2  0
  8  9  1  0
  9 10  1  0
 10 11  1  0
 11 12  1  0
 12 13  1  0
 10 14  1  0
 14 15  2  0
 14 16  1  0
 16 17  1  0
 17 18  2  0
 18 19  1  0
 19 20  2  0
 20 21  1  0
 21 22  2  0
  8 23  1  0
 23 24  2  0
 24  5  1  0
 22 17  1  0
M  END
>  <molecule_chembl_id>  (304) 
CHEMBL4079541

>  <canonical_smiles>  (304) 
O=C(NO)c1ccc(CN(CCO)C(=O)Cc2ccccc2)cc1

>  <pchembl_value_mean>  (304) 
5.66

>  <document_chembl_id>  (304) 
CHEMBL4033665

$$$$

     RDKit          2D

 29 32  0  0  0  0  0  0  0  0999 V2000
   -2.7729  -10.0617    0.0000 O   0  0  0  0  0  0  0  0  0  0  0  0
   -3.8876   -9.0580    0.0000 C   0  0  0  0  0  0  0  0  0  0  0  0
   -5.3142   -9.5216    0.0000 N   0  0  0  0  0  0  0  0  0  0  0  0
   -5.6260  -10.9888    0.0000 O   0  0  0  0  0  0  0  0  0  0  0  0
   -3.5757   -7.5908    0.0000 C   0  0  0  0  0  0  0  0  0  0  0  0
   -4.6904   -6.5871    0.0000 C   0  0  0  0  0  0  0  0  0  0  0  0
   -4.3786   -5.1199    0.0000 C   0  0  0  0  0  0  0  0  0  0  0  0
   -2.9520   -4.6564    0.0000 C   0  0  0  0  0  0  0  0  0  0  0  0
   -2.6401   -3.1891    0.0000 C   0  0  0  0  0  0  0  0  0  0  0  0
   -1.2135   -2.7256    0.0000 N   0  0  0  0  0  0  0  0  0  0  0  0
   -0.0000   -3.6073    0.0000 C   0  0  0  0  0  0  0  0  0  0  0  0
    1.2135   -2.7256    0.0000 C   0  0  0  0  0  0  0  0  0  0  0  0
    0.7500   -1.2990    0.0000 C   0  0  0  0  0  0  0  0  0  0  0  0
    1.5000    0.0000    0.0000 C   0  0  0  0  0  0  0  0  0  0  0  0
    0.7500    1.2990    0.0000 C   0  0  0  0  0  0  0  0  0  0  0  0
    1.5000    2.5981    0.0000 C   0  0  0  0  0  0  0  0  0  0  0  0
    0.7500    3.8971    0.0000 O   0  0  0  0  0  0  0  0  0  0  0  0
    3.0000    2.5981    0.0000 C   0  0  0  0  0  0  0  0  0  0  0  0
    3.7500    1.2990    0.0000 C   0  0  0  0  0  0  0  0  0  0  0  0
    5.2500    1.2990    0.0000 C   0  0  0  0  0  0  0  0  0  0  0  0
    6.0000    2.5981    0.0000 C   0  0  0  0  0  0  0  0  0  0  0  0
    7.5000    2.5981    0.0000 Cl  0  0  0  0  0  0  0  0  0  0  0  0
    5.2500    3.8971    0.0000 C   0  0  0  0  0  0  0  0  0  0  0  0
    3.7500    3.8971    0.0000 C   0  0  0  0  0  0  0  0  0  0  0  0
   -0.7500    1.2990    0.0000 C   0  0  0  0  0  0  0  0  0  0  0  0
   -1.5000    0.0000    0.0000 C   0  0  0  0  0  0  0  0  0  0  0  0
   -0.7500   -1.2990    0.0000 C   0  0  0  0  0  0  0  0  0  0  0  0
   -1.8373   -5.6601    0.0000 C   0  0  0  0  0  0  0  0  0  0  0  0
   -2.1491   -7.1273    0.0000 C   0  0  0  0  0  0  0  0  0  0  0  0
  1  2  2  0
  2  3  1  0
  3  4  1  0
  2  5  1  0
  5  6  2  0
  6  7  1  0
  7  8  2  0
  8  9  1  0
  9 10  1  0
 10 11  1  0
 11 12  2  0
 12 13  1  0
 13 14  2  0
 14 15  1  0
 15 16  1  0
 16 17  2  0
 16 18  1  0
 18 19  2  0
 19 20  1  0
 20 21  2  0
 21 22  1  0
 21 23  1  0
 23 24  2  0
 15 25  2  0
 25 26  1  0
 26 27  2  0
  8 28  1  0
 28 29  2  0
 29  5  1  0
 27 10  1  0
 27 13  1  0
 24 18  1  0
M  END
>  <molecule_chembl_id>  (305) 
CHEMBL4206537

>  <canonical_smiles>  (305) 
O=C(NO)c1ccc(Cn2ccc3cc(C(=O)c4ccc(Cl)cc4)ccc32)cc1

>  <pchembl_value_mean>  (305) 
5.68

>  <document_chembl_id>  (305) 
CHEMBL4196108

$$$$

     RDKit          2D

 24 26  0  0  0  0  0  0  0  0999 V2000
    3.7500   -1.2990    0.0000 C   0  0  0  0  0  0  0  0  0  0  0  0
    3.0000    0.0000    0.0000 O   0  0  0  0  0  0  0  0  0  0  0  0
    1.5000    0.0000    0.0000 C   0  0  0  0  0  0  0  0  0  0  0  0
    0.7500   -1.2990    0.0000 C   0  0  0  0  0  0  0  0  0  0  0  0
   -0.7500   -1.2990    0.0000 C   0  0  0  0  0  0  0  0  0  0  0  0
   -1.5000    0.0000    0.0000 C   0  0  0  0  0  0  0  0  0  0  0  0
   -0.7500    1.2990    0.0000 C   0  0  0  0  0  0  0  0  0  0  0  0
   -1.5000    2.5981    0.0000 C   0  0  0  0  0  0  0  0  0  0  0  0
   -0.7500    3.8971    0.0000 C   0  0  0  0  0  0  0  0  0  0  0  0
   -1.5000    5.1962    0.0000 C   0  0  0  0  0  0  0  0  0  0  0  0
   -3.0000    5.1962    0.0000 C   0  0  0  0  0  0  0  0  0  0  0  0
   -3.7500    6.4952    0.0000 N   0  0  0  0  0  0  0  0  0  0  0  0
   -3.7500    3.8971    0.0000 C   0  0  0  0  0  0  0  0  0  0  0  0
   -5.2500    3.8971    0.0000 N   0  0  0  0  0  0  0  0  0  0  0  0
   -6.0000    2.5981    0.0000 C   0  0  0  0  0  0  0  0  0  0  0  0
   -5.2500    1.2990    0.0000 O   0  0  0  0  0  0  0  0  0  0  0  0
   -7.5000    2.5981    0.0000 C   0  0  0  0  0  0  0  0  0  0  0  0
   -8.2500    3.8971    0.0000 C   0  0  0  0  0  0  0  0  0  0  0  0
   -9.7500    3.8971    0.0000 C   0  0  0  0  0  0  0  0  0  0  0  0
  -10.5000    2.5981    0.0000 C   0  0  0  0  0  0  0  0  0  0  0  0
   -9.7500    1.2990    0.0000 C   0  0  0  0  0  0  0  0  0  0  0  0
   -8.2500    1.2990    0.0000 C   0  0  0  0  0  0  0  0  0  0  0  0
   -3.0000    2.5981    0.0000 C   0  0  0  0  0  0  0  0  0  0  0  0
    0.7500    1.2990    0.0000 C   0  0  0  0  0  0  0  0  0  0  0  0
  1  2  1  0
  2  3  1  0
  3  4  2  0
  4  5  1  0
  5  6  2  0
  6  7  1  0
  7  8  1  0
  8  9  2  0
  9 10  1  0
 10 11  2  0
 11 12  1  0
 11 13  1  0
 13 14  1  0
 14 15  1  0
 15 16  2  0
 15 17  1  0
 17 18  2  0
 18 19  1  0
 19 20  2  0
 20 21  1  0
 21 22  2  0
 13 23  2  0
  7 24  2  0
 24  3  1  0
 23  8  1  0
 22 17  1  0
M  END
>  <molecule_chembl_id>  (306) 
CHEMBL1097747

>  <canonical_smiles>  (306) 
COc1cccc(-c2ccc(N)c(NC(=O)c3ccccc3)c2)c1

>  <pchembl_value_mean>  (306) 
5.68

>  <document_chembl_id>  (306) 
CHEMBL1158590

$$$$

     RDKit          2D

 41 43  0  0  0  0  0  0  0  0999 V2000
   22.7824    8.0713    0.0000 C   0  0  0  0  0  0  0  0  0  0  0  0
   21.7217    7.0106    0.0000 C   0  0  0  0  0  0  0  0  0  0  0  0
   20.2728    7.3989    0.0000 C   0  0  0  0  0  0  0  0  0  0  0  0
   19.2122    6.3382    0.0000 C   0  0  0  0  0  0  0  0  0  0  0  0
   17.7633    6.7264    0.0000 C   0  0  0  0  0  0  0  0  0  0  0  0
   16.7026    5.6658    0.0000 C   0  0  0  0  0  0  0  0  0  0  0  0
   15.2537    6.0540    0.0000 C   0  0  0  0  0  0  0  0  0  0  0  0
   14.1931    4.9933    0.0000 C   0  0  0  0  0  0  0  0  0  0  0  0
   14.5813    3.5444    0.0000 O   0  0  0  0  0  0  0  0  0  0  0  0
   12.7442    5.3816    0.0000 S   0  0  0  0  0  0  0  0  0  0  0  0
   11.6835    4.3209    0.0000 C   0  0  0  0  0  0  0  0  0  0  0  0
   10.2346    4.7091    0.0000 C   0  0  0  0  0  0  0  0  0  0  0  0
    9.1740    3.6485    0.0000 C   0  0  0  0  0  0  0  0  0  0  0  0
    7.7251    4.0367    0.0000 C   0  0  0  0  0  0  0  0  0  0  0  0
    6.6644    2.9760    0.0000 C   0  0  0  0  0  0  0  0  0  0  0  0
    5.4172    3.8094    0.0000 C   0  0  0  0  0  0  0  0  0  0  0  0
    3.9460    4.1020    0.0000 C   0  0  0  0  0  0  0  0  0  0  0  0
    3.9460    5.6020    0.0000 O   0  0  0  0  0  0  0  0  0  0  0  0
    2.4749    3.8094    0.0000 N   0  0  0  0  0  0  0  0  0  0  0  0
    1.2277    2.9760    0.0000 C   0  0  0  0  0  0  0  0  0  0  0  0
    0.3943    1.2135    0.0000 C   0  0  0  0  0  0  0  0  0  0  0  0
    1.2760    0.0000    0.0000 N   0  0  0  0  0  0  0  0  0  0  0  0
    0.3943   -1.2135    0.0000 C   0  0  0  0  0  0  0  0  0  0  0  0
   -1.0323   -0.7500    0.0000 C   0  0  0  0  0  0  0  0  0  0  0  0
   -1.0323    0.7500    0.0000 O   0  0  0  0  0  0  0  0  0  0  0  0
    1.2277   -2.4607    0.0000 C   0  0  0  0  0  0  0  0  0  0  0  0
    2.4749   -3.2941    0.0000 N   0  0  0  0  0  0  0  0  0  0  0  0
    3.9460   -3.5867    0.0000 C   0  0  0  0  0  0  0  0  0  0  0  0
    3.9460   -5.0867    0.0000 C   0  0  0  0  0  0  0  0  0  0  0  0
    2.9719   -4.7273    0.0000 C   0  0  0  0  0  0  0  0  0  0  0  0
    1.5860   -4.1533    0.0000 S   0  0  0  0  0  0  0  0  0  0  0  0
    5.4172   -3.2941    0.0000 C   0  0  0  0  0  0  0  0  0  0  0  0
    5.9912   -4.6799    0.0000 O   0  0  0  0  0  0  0  0  0  0  0  0
    6.6644   -2.4607    0.0000 N   0  0  0  0  0  0  0  0  0  0  0  0
    7.4978   -1.2135    0.0000 C   0  0  0  0  0  0  0  0  0  0  0  0
    8.8836   -1.7876    0.0000 C   0  0  0  0  0  0  0  0  0  0  0  0
    9.0794   -3.2747    0.0000 C   0  0  0  0  0  0  0  0  0  0  0  0
   10.0736   -0.8744    0.0000 C   0  0  0  0  0  0  0  0  0  0  0  0
    7.7904    0.2577    0.0000 C   0  0  0  0  0  0  0  0  0  0  0  0
    9.2904    0.2577    0.0000 O   0  0  0  0  0  0  0  0  0  0  0  0
    7.4978    1.7288    0.0000 O   0  0  0  0  0  0  0  0  0  0  0  0
  1  2  1  0
  2  3  1  0
  3  4  1  0
  4  5  1  0
  5  6  1  0
  6  7  1  0
  7  8  1  0
  8  9  2  0
  8 10  1  0
 10 11  1  0
 11 12  1  0
 12 13  1  0
 13 14  2  3
 14 15  1  0
 15 16  1  0
 16 17  1  0
 17 18  2  0
 17 19  1  0
 19 20  1  0
 20 21  1  0
 21 22  2  0
 22 23  1  0
 23 24  2  0
 24 25  1  0
 23 26  1  0
 26 27  2  0
 27 28  1  0
 28 29  1  0
 28 30  1  0
 30 31  1  0
 28 32  1  0
 32 33  2  0
 32 34  1  0
 34 35  1  0
 35 36  1  0
 36 37  1  0
 36 38  1  0
 35 39  1  0
 39 40  2  0
 39 41  1  0
 41 15  1  0
 25 21  1  0
 31 26  1  0
M  END
>  <molecule_chembl_id>  (307) 
CHEMBL2436594

>  <canonical_smiles>  (307) 
CCCCCCCC(=O)SCCC=CC1CC(=O)NCc2nc(co2)C2=NC(C)(CS2)C(=O)NC(C(C)C)C(=O)O1

>  <pchembl_value_mean>  (307) 
5.68

>  <document_chembl_id>  (307) 
CHEMBL2434914

$$$$

     RDKit          2D

 20 21  0  0  0  0  0  0  0  0999 V2000
    3.0000    0.0000    0.0000 C   0  0  0  0  0  0  0  0  0  0  0  0
    1.5000    0.0000    0.0000 C   0  0  0  0  0  0  0  0  0  0  0  0
    0.7500   -1.2990    0.0000 C   0  0  0  0  0  0  0  0  0  0  0  0
   -0.7500   -1.2990    0.0000 C   0  0  0  0  0  0  0  0  0  0  0  0
   -1.5000    0.0000    0.0000 C   0  0  0  0  0  0  0  0  0  0  0  0
   -0.7500    1.2990    0.0000 C   0  0  0  0  0  0  0  0  0  0  0  0
   -1.5000    2.5981    0.0000 C   0  0  0  0  0  0  0  0  0  0  0  0
    0.7500    1.2990    0.0000 C   0  0  0  0  0  0  0  0  0  0  0  0
    1.5000    2.5981    0.0000 C   0  0  0  0  0  0  0  0  0  0  0  0
    3.0000    2.5981    0.0000 N   0  0  0  0  0  0  0  0  0  0  0  0
    3.7500    3.8971    0.0000 C   0  0  0  0  0  0  0  0  0  0  0  0
    5.2500    3.8971    0.0000 N   0  0  0  0  0  0  0  0  0  0  0  0
    6.0000    5.1962    0.0000 C   0  0  0  0  0  0  0  0  0  0  0  0
    5.2500    6.4952    0.0000 C   0  0  0  0  0  0  0  0  0  0  0  0
    6.0000    7.7942    0.0000 C   0  0  0  0  0  0  0  0  0  0  0  0
    5.2500    9.0933    0.0000 O   0  0  0  0  0  0  0  0  0  0  0  0
    7.5000    7.7942    0.0000 N   0  0  0  0  0  0  0  0  0  0  0  0
    8.2500    9.0933    0.0000 O   0  0  0  0  0  0  0  0  0  0  0  0
    3.7500    6.4952    0.0000 C   0  0  0  0  0  0  0  0  0  0  0  0
    3.0000    5.1962    0.0000 N   0  0  0  0  0  0  0  0  0  0  0  0
  1  2  1  0
  2  3  2  0
  3  4  1  0
  4  5  2  0
  5  6  1  0
  6  7  1  0
  6  8  2  0
  8  9  1  0
  9 10  1  0
 10 11  1  0
 11 12  2  0
 12 13  1  0
 13 14  2  0
 14 15  1  0
 15 16  2  0
 15 17  1  0
 17 18  1  0
 14 19  1  0
 19 20  2  0
  8  2  1  0
 20 11  1  0
M  END
>  <molecule_chembl_id>  (308) 
CHEMBL3655937

>  <canonical_smiles>  (308) 
Cc1cccc(C)c1CNc1ncc(C(=O)NO)cn1

>  <pchembl_value_mean>  (308) 
5.68

>  <document_chembl_id>  (308) 
CHEMBL3639071

$$$$

     RDKit          2D

 26 28  0  0  0  0  0  0  0  0999 V2000
    3.7500    1.2990    0.0000 O   0  0  0  0  0  0  0  0  0  0  0  0
    3.0000    0.0000    0.0000 C   0  0  0  0  0  0  0  0  0  0  0  0
    3.7500   -1.2990    0.0000 N   0  0  0  0  0  0  0  0  0  0  0  0
    5.2500   -1.2990    0.0000 O   0  0  0  0  0  0  0  0  0  0  0  0
    1.5000    0.0000    0.0000 C   0  0  0  0  0  0  0  0  0  0  0  0
    0.7500   -1.2990    0.0000 C   0  0  0  0  0  0  0  0  0  0  0  0
   -0.7500   -1.2990    0.0000 C   0  0  0  0  0  0  0  0  0  0  0  0
   -1.5000    0.0000    0.0000 C   0  0  0  0  0  0  0  0  0  0  0  0
   -0.7500    1.2990    0.0000 C   0  0  0  0  0  0  0  0  0  0  0  0
   -1.5000    2.5981    0.0000 C   0  0  0  0  0  0  0  0  0  0  0  0
   -0.7500    3.8971    0.0000 C   0  0  0  0  0  0  0  0  0  0  0  0
   -1.5000    5.1962    0.0000 C   0  0  0  0  0  0  0  0  0  0  0  0
   -0.7500    6.4952    0.0000 C   0  0  0  0  0  0  0  0  0  0  0  0
   -1.5000    7.7942    0.0000 C   0  0  0  0  0  0  0  0  0  0  0  0
   -3.0000    7.7942    0.0000 N   0  0  0  0  0  0  0  0  0  0  0  0
   -3.7500    6.4952    0.0000 C   0  0  0  0  0  0  0  0  0  0  0  0
   -5.2500    6.4952    0.0000 C   0  0  0  0  0  0  0  0  0  0  0  0
   -6.0000    7.7942    0.0000 C   0  0  0  0  0  0  0  0  0  0  0  0
   -7.5000    7.7942    0.0000 C   0  0  0  0  0  0  0  0  0  0  0  0
   -8.2500    9.0933    0.0000 F   0  0  0  0  0  0  0  0  0  0  0  0
   -8.2500    6.4952    0.0000 C   0  0  0  0  0  0  0  0  0  0  0  0
   -7.5000    5.1962    0.0000 C   0  0  0  0  0  0  0  0  0  0  0  0
   -6.0000    5.1962    0.0000 C   0  0  0  0  0  0  0  0  0  0  0  0
   -5.2500    3.8971    0.0000 O   0  0  0  0  0  0  0  0  0  0  0  0
   -3.0000    5.1962    0.0000 C   0  0  0  0  0  0  0  0  0  0  0  0
    0.7500    1.2990    0.0000 C   0  0  0  0  0  0  0  0  0  0  0  0
  1  2  2  0
  2  3  1  0
  3  4  1  0
  2  5  1  0
  5  6  2  0
  6  7  1  0
  7  8  2  0
  8  9  1  0
  9 10  1  0
 10 11  2  3
 11 12  1  0
 12 13  2  0
 13 14  1  0
 14 15  2  0
 15 16  1  0
 16 17  1  0
 17 18  2  0
 18 19  1  0
 19 20  1  0
 19 21  2  0
 21 22  1  0
 22 23  2  0
 23 24  1  0
 16 25  2  0
  9 26  2  0
 26  5  1  0
 25 12  1  0
 23 17  1  0
M  END
>  <molecule_chembl_id>  (309) 
CHEMBL5084881

>  <canonical_smiles>  (309) 
O=C(NO)c1cccc(C=Cc2ccnc(-c3cc(F)ccc3O)c2)c1

>  <pchembl_value_mean>  (309) 
5.69

>  <document_chembl_id>  (309) 
CHEMBL5038581

$$$$

     RDKit          2D

 35 38  0  0  0  0  0  0  0  0999 V2000
   -4.3786   -5.1199    0.0000 C   0  0  0  0  0  0  0  0  0  0  0  0
   -2.9520   -4.6564    0.0000 C   0  0  0  0  0  0  0  0  0  0  0  0
   -2.6401   -3.1891    0.0000 C   0  0  0  0  0  0  0  0  0  0  0  0
   -1.2135   -2.7256    0.0000 C   0  0  0  0  0  0  0  0  0  0  0  0
   -0.0000   -3.6073    0.0000 N   0  0  0  0  0  0  0  0  0  0  0  0
    1.2135   -2.7256    0.0000 N   0  0  0  0  0  0  0  0  0  0  0  0
    2.6401   -3.1891    0.0000 C   0  0  0  0  0  0  0  0  0  0  0  0
    0.7500   -1.2990    0.0000 C   0  0  0  0  0  0  0  0  0  0  0  0
    1.5000    0.0000    0.0000 C   0  0  0  0  0  0  0  0  0  0  0  0
    3.0000    0.0000    0.0000 O   0  0  0  0  0  0  0  0  0  0  0  0
    0.7500    1.2990    0.0000 N   0  0  0  0  0  0  0  0  0  0  0  0
   -0.7500    1.2990    0.0000 C   0  0  0  0  0  0  0  0  0  0  0  0
   -1.5000    2.5981    0.0000 C   0  0  0  0  0  0  0  0  0  0  0  0
   -0.7500    3.8971    0.0000 C   0  0  0  0  0  0  0  0  0  0  0  0
   -1.5000    5.1962    0.0000 C   0  0  0  0  0  0  0  0  0  0  0  0
   -0.7500    6.4952    0.0000 N   0  0  0  0  0  0  0  0  0  0  0  0
    0.7500    6.4952    0.0000 C   0  0  0  0  0  0  0  0  0  0  0  0
    1.5000    7.7942    0.0000 C   0  0  0  0  0  0  0  0  0  0  0  0
    0.7500    9.0933    0.0000 C   0  0  0  0  0  0  0  0  0  0  0  0
    1.5000   10.3923    0.0000 C   0  0  0  0  0  0  0  0  0  0  0  0
    3.0000   10.3923    0.0000 C   0  0  0  0  0  0  0  0  0  0  0  0
    3.7500   11.6913    0.0000 C   0  0  0  0  0  0  0  0  0  0  0  0
    3.0000   12.9904    0.0000 O   0  0  0  0  0  0  0  0  0  0  0  0
    5.2500   11.6913    0.0000 N   0  0  0  0  0  0  0  0  0  0  0  0
    6.0000   12.9904    0.0000 O   0  0  0  0  0  0  0  0  0  0  0  0
   -0.7500    9.0933    0.0000 C   0  0  0  0  0  0  0  0  0  0  0  0
   -1.5000    7.7942    0.0000 C   0  0  0  0  0  0  0  0  0  0  0  0
   -3.0000    5.1962    0.0000 C   0  0  0  0  0  0  0  0  0  0  0  0
   -3.7500    3.8971    0.0000 C   0  0  0  0  0  0  0  0  0  0  0  0
   -3.0000    2.5981    0.0000 C   0  0  0  0  0  0  0  0  0  0  0  0
   -3.7500    1.2990    0.0000 O   0  0  0  0  0  0  0  0  0  0  0  0
   -5.2500    1.2990    0.0000 C   0  0  0  0  0  0  0  0  0  0  0  0
   -6.0000    0.0000    0.0000 C   0  0  0  0  0  0  0  0  0  0  0  0
   -1.5000    0.0000    0.0000 N   0  0  0  0  0  0  0  0  0  0  0  0
   -0.7500   -1.2990    0.0000 C   0  0  0  0  0  0  0  0  0  0  0  0
  1  2  1  0
  2  3  1  0
  3  4  1  0
  4  5  2  0
  5  6  1  0
  6  7  1  0
  6  8  1  0
  8  9  1  0
  9 10  2  0
  9 11  1  0
 11 12  1  0
 12 13  1  0
 13 14  2  0
 14 15  1  0
 15 16  1  0
 16 17  1  0
 17 18  1  0
 18 19  1  0
 19 20  1  0
 20 21  1  0
 21 22  1  0
 22 23  2  0
 22 24  1  0
 24 25  1  0
 19 26  1  0
 26 27  1  0
 15 28  2  0
 28 29  1  0
 29 30  2  0
 30 31  1  0
 31 32  1  0
 32 33  1  0
 12 34  2  0
 34 35  1  0
 35  4  1  0
 35  8  2  0
 30 13  1  0
 27 16  1  0
M  END
>  <molecule_chembl_id>  (310) 
CHEMBL3962991

>  <canonical_smiles>  (310) 
CCCc1nn(C)c2c(=O)[nH]c(-c3cc(N4CCC(CCC(=O)NO)CC4)ccc3OCC)nc12

>  <pchembl_value_mean>  (310) 
5.69

>  <document_chembl_id>  (310) 
CHEMBL3860059

$$$$

     RDKit          2D

 35 37  0  0  0  0  0  0  0  0999 V2000
    3.0000    0.0000    0.0000 C   0  0  0  0  0  0  0  0  0  0  0  0
    1.5000    0.0000    0.0000 C   0  0  0  0  0  0  0  0  0  0  0  0
    0.7500   -1.2990    0.0000 C   0  0  0  0  0  0  0  0  0  0  0  0
   -0.7500   -1.2990    0.0000 C   0  0  0  0  0  0  0  0  0  0  0  0
   -1.5000    0.0000    0.0000 C   0  0  0  0  0  0  0  0  0  0  0  0
   -3.0000    0.0000    0.0000 C   0  0  0  0  0  0  0  0  0  0  0  0
   -3.8817   -1.2135    0.0000 C   0  0  0  0  0  0  0  0  0  0  0  0
   -5.3083   -0.7500    0.0000 C   0  0  0  0  0  0  0  0  0  0  0  0
   -6.5218   -1.6317    0.0000 C   0  0  0  0  0  0  0  0  0  0  0  0
   -7.7353   -2.5134    0.0000 F   0  0  0  0  0  0  0  0  0  0  0  0
   -7.4035   -0.4182    0.0000 F   0  0  0  0  0  0  0  0  0  0  0  0
   -5.6401   -2.8452    0.0000 F   0  0  0  0  0  0  0  0  0  0  0  0
   -5.3083    0.7500    0.0000 N   0  0  0  0  0  0  0  0  0  0  0  0
   -3.8817    1.2135    0.0000 N   0  0  0  0  0  0  0  0  0  0  0  0
   -3.4182    2.6401    0.0000 C   0  0  0  0  0  0  0  0  0  0  0  0
   -1.9509    2.9520    0.0000 C   0  0  0  0  0  0  0  0  0  0  0  0
   -1.4874    4.3786    0.0000 C   0  0  0  0  0  0  0  0  0  0  0  0
   -2.4911    5.4933    0.0000 C   0  0  0  0  0  0  0  0  0  0  0  0
   -2.0276    6.9199    0.0000 S   0  0  0  0  0  0  0  0  0  0  0  0
   -0.6010    6.4563    0.0000 O   0  0  0  0  0  0  0  0  0  0  0  0
   -3.4542    7.3834    0.0000 O   0  0  0  0  0  0  0  0  0  0  0  0
   -1.5641    8.3464    0.0000 N   0  0  0  0  0  0  0  0  0  0  0  0
   -2.5677    9.4612    0.0000 C   0  0  0  0  0  0  0  0  0  0  0  0
   -2.1042   10.8878    0.0000 C   0  0  0  0  0  0  0  0  0  0  0  0
   -3.1079   12.0025    0.0000 C   0  0  0  0  0  0  0  0  0  0  0  0
   -2.6444   13.4291    0.0000 C   0  0  0  0  0  0  0  0  0  0  0  0
   -3.6481   14.5438    0.0000 C   0  0  0  0  0  0  0  0  0  0  0  0
   -3.1846   15.9704    0.0000 C   0  0  0  0  0  0  0  0  0  0  0  0
   -1.7173   16.2822    0.0000 O   0  0  0  0  0  0  0  0  0  0  0  0
   -4.1883   17.0851    0.0000 N   0  0  0  0  0  0  0  0  0  0  0  0
   -3.7247   18.5117    0.0000 O   0  0  0  0  0  0  0  0  0  0  0  0
   -3.9583    5.1814    0.0000 C   0  0  0  0  0  0  0  0  0  0  0  0
   -4.4218    3.7548    0.0000 C   0  0  0  0  0  0  0  0  0  0  0  0
   -0.7500    1.2990    0.0000 C   0  0  0  0  0  0  0  0  0  0  0  0
    0.7500    1.2990    0.0000 C   0  0  0  0  0  0  0  0  0  0  0  0
  1  2  1  0
  2  3  2  0
  3  4  1  0
  4  5  2  0
  5  6  1  0
  6  7  2  0
  7  8  1  0
  8  9  1  0
  9 10  1  0
  9 11  1  0
  9 12  1  0
  8 13  2  0
 13 14  1  0
 14 15  1  0
 15 16  2  0
 16 17  1  0
 17 18  2  0
 18 19  1  0
 19 20  2  0
 19 21  2  0
 19 22  1  0
 22 23  1  0
 23 24  1  0
 24 25  1  0
 25 26  1  0
 26 27  1  0
 27 28  1  0
 28 29  2  0
 28 30  1  0
 30 31  1  0
 18 32  1  0
 32 33  2  0
  5 34  1  0
 34 35  2  0
 35  2  1  0
 14  6  1  0
 33 15  1  0
M  END
>  <molecule_chembl_id>  (311) 
CHEMBL3884044

>  <canonical_smiles>  (311) 
Cc1ccc(-c2cc(C(F)(F)F)nn2-c2ccc(S(=O)(=O)NCCCCCC(=O)NO)cc2)cc1

>  <pchembl_value_mean>  (311) 
5.69

>  <document_chembl_id>  (311) 
CHEMBL3875218

$$$$

     RDKit          2D

 28 31  0  0  0  0  0  0  0  0999 V2000
   -8.9702   -7.9777    0.0000 O   0  0  0  0  0  0  0  0  0  0  0  0
   -7.8555   -8.9814    0.0000 C   0  0  0  0  0  0  0  0  0  0  0  0
   -6.4289   -8.5179    0.0000 C   0  0  0  0  0  0  0  0  0  0  0  0
   -6.1170   -7.0506    0.0000 C   0  0  0  0  0  0  0  0  0  0  0  0
   -4.6904   -6.5871    0.0000 C   0  0  0  0  0  0  0  0  0  0  0  0
   -4.3786   -5.1199    0.0000 C   0  0  0  0  0  0  0  0  0  0  0  0
   -2.9520   -4.6564    0.0000 C   0  0  0  0  0  0  0  0  0  0  0  0
   -2.6401   -3.1891    0.0000 C   0  0  0  0  0  0  0  0  0  0  0  0
   -1.2135   -2.7256    0.0000 C   0  0  0  0  0  0  0  0  0  0  0  0
   -0.0000   -3.6073    0.0000 C   0  0  0  0  0  0  0  0  0  0  0  0
    1.2135   -2.7256    0.0000 N   0  0  0  0  0  0  0  0  0  0  0  0
    0.7500   -1.2990    0.0000 C   0  0  0  0  0  0  0  0  0  0  0  0
    1.5000    0.0000    0.0000 C   0  0  0  0  0  0  0  0  0  0  0  0
    0.7500    1.2990    0.0000 C   0  0  0  0  0  0  0  0  0  0  0  0
   -0.7500    1.2990    0.0000 C   0  0  0  0  0  0  0  0  0  0  0  0
   -1.5000    0.0000    0.0000 C   0  0  0  0  0  0  0  0  0  0  0  0
   -0.7500   -1.2990    0.0000 C   0  0  0  0  0  0  0  0  0  0  0  0
   -3.7548   -2.1855    0.0000 C   0  0  0  0  0  0  0  0  0  0  0  0
   -3.5980   -0.6937    0.0000 C   0  0  0  0  0  0  0  0  0  0  0  0
   -4.9684   -0.0836    0.0000 N   0  0  0  0  0  0  0  0  0  0  0  0
   -5.9720   -1.1983    0.0000 C   0  0  0  0  0  0  0  0  0  0  0  0
   -7.4720   -1.1983    0.0000 C   0  0  0  0  0  0  0  0  0  0  0  0
   -8.2220   -2.4973    0.0000 C   0  0  0  0  0  0  0  0  0  0  0  0
   -7.4720   -3.7964    0.0000 C   0  0  0  0  0  0  0  0  0  0  0  0
   -5.9720   -3.7964    0.0000 C   0  0  0  0  0  0  0  0  0  0  0  0
   -5.2220   -2.4973    0.0000 C   0  0  0  0  0  0  0  0  0  0  0  0
   -8.1673  -10.4486    0.0000 N   0  0  0  0  0  0  0  0  0  0  0  0
   -9.5939  -10.9121    0.0000 O   0  0  0  0  0  0  0  0  0  0  0  0
  1  2  2  0
  2  3  1  0
  3  4  1  0
  4  5  1  0
  5  6  1  0
  6  7  1  0
  7  8  1  0
  8  9  1  0
  9 10  2  0
 10 11  1  0
 11 12  1  0
 12 13  2  0
 13 14  1  0
 14 15  2  0
 15 16  1  0
 16 17  2  0
  8 18  1  0
 18 19  2  0
 19 20  1  0
 20 21  1  0
 21 22  2  0
 22 23  1  0
 23 24  2  0
 24 25  1  0
 25 26  2  0
  2 27  1  0
 27 28  1  0
 17  9  1  0
 26 18  1  0
 17 12  1  0
 26 21  1  0
M  END
>  <molecule_chembl_id>  (312) 
CHEMBL564876

>  <canonical_smiles>  (312) 
O=C(CCCCCC(c1c[nH]c2ccccc12)c1c[nH]c2ccccc12)NO

>  <pchembl_value_mean>  (312) 
5.7

>  <document_chembl_id>  (312) 
CHEMBL1153591

$$$$

     RDKit          2D

 26 29  0  0  0  0  0  0  0  0999 V2000
   -3.8536   -0.8075    0.0000 C   0  0  0  0  0  0  0  0  0  0  0  0
   -3.8536   -2.3075    0.0000 N   0  0  0  0  0  0  0  0  0  0  0  0
   -5.0672   -3.1891    0.0000 C   0  0  0  0  0  0  0  0  0  0  0  0
   -4.6036   -4.6157    0.0000 C   0  0  0  0  0  0  0  0  0  0  0  0
   -3.1036   -4.6157    0.0000 C   0  0  0  0  0  0  0  0  0  0  0  0
   -2.6401   -3.1891    0.0000 C   0  0  0  0  0  0  0  0  0  0  0  0
   -1.2135   -2.7256    0.0000 C   0  0  0  0  0  0  0  0  0  0  0  0
   -0.0000   -3.6073    0.0000 C   0  0  0  0  0  0  0  0  0  0  0  0
    1.2135   -2.7256    0.0000 N   0  0  0  0  0  0  0  0  0  0  0  0
    2.6401   -3.1891    0.0000 C   0  0  0  0  0  0  0  0  0  0  0  0
    2.9520   -4.6564    0.0000 C   0  0  0  0  0  0  0  0  0  0  0  0
    1.8373   -5.6601    0.0000 C   0  0  0  0  0  0  0  0  0  0  0  0
    2.1491   -7.1273    0.0000 C   0  0  0  0  0  0  0  0  0  0  0  0
    3.5757   -7.5908    0.0000 C   0  0  0  0  0  0  0  0  0  0  0  0
    3.8876   -9.0580    0.0000 C   0  0  0  0  0  0  0  0  0  0  0  0
    5.3142   -9.5216    0.0000 O   0  0  0  0  0  0  0  0  0  0  0  0
    2.7729  -10.0617    0.0000 N   0  0  0  0  0  0  0  0  0  0  0  0
    3.0847  -11.5290    0.0000 O   0  0  0  0  0  0  0  0  0  0  0  0
    4.6904   -6.5871    0.0000 C   0  0  0  0  0  0  0  0  0  0  0  0
    4.3786   -5.1199    0.0000 C   0  0  0  0  0  0  0  0  0  0  0  0
    0.7500   -1.2990    0.0000 C   0  0  0  0  0  0  0  0  0  0  0  0
    1.5000    0.0000    0.0000 C   0  0  0  0  0  0  0  0  0  0  0  0
    0.7500    1.2990    0.0000 C   0  0  0  0  0  0  0  0  0  0  0  0
   -0.7500    1.2990    0.0000 C   0  0  0  0  0  0  0  0  0  0  0  0
   -1.5000    0.0000    0.0000 C   0  0  0  0  0  0  0  0  0  0  0  0
   -0.7500   -1.2990    0.0000 C   0  0  0  0  0  0  0  0  0  0  0  0
  1  2  1  0
  2  3  1  0
  3  4  1  0
  4  5  1  0
  5  6  1  0
  6  7  1  0
  7  8  2  0
  8  9  1  0
  9 10  1  0
 10 11  1  0
 11 12  2  0
 12 13  1  0
 13 14  2  0
 14 15  1  0
 15 16  2  0
 15 17  1  0
 17 18  1  0
 14 19  1  0
 19 20  2  0
  9 21  1  0
 21 22  2  0
 22 23  1  0
 23 24  2  0
 24 25  1  0
 25 26  2  0
  6  2  1  0
 26  7  1  0
 20 11  1  0
 26 21  1  0
M  END
>  <molecule_chembl_id>  (313) 
CHEMBL4532181

>  <canonical_smiles>  (313) 
CN1CCCC1c1cn(Cc2ccc(C(=O)NO)cc2)c2ccccc12

>  <pchembl_value_mean>  (313) 
5.7

>  <document_chembl_id>  (313) 
CHEMBL4385610

$$$$

     RDKit          2D

 43 45  0  0  0  0  0  0  0  0999 V2000
   12.1339   -5.1962    0.0000 C   0  0  0  0  0  0  0  0  0  0  0  0
   11.3839   -3.8971    0.0000 C   0  0  0  0  0  0  0  0  0  0  0  0
    9.8839   -3.8971    0.0000 C   0  0  0  0  0  0  0  0  0  0  0  0
    9.1339   -5.1962    0.0000 O   0  0  0  0  0  0  0  0  0  0  0  0
    9.1339   -2.5981    0.0000 C   0  0  0  0  0  0  0  0  0  0  0  0
    7.6339   -2.5981    0.0000 C   0  0  0  0  0  0  0  0  0  0  0  0
    6.8839   -1.2990    0.0000 C   0  0  0  0  0  0  0  0  0  0  0  0
    5.3839   -1.2990    0.0000 C   0  0  0  0  0  0  0  0  0  0  0  0
    4.6339    0.0000    0.0000 C   0  0  0  0  0  0  0  0  0  0  0  0
    3.1339    0.0000    0.0000 C   0  0  0  0  0  0  0  0  0  0  0  0
    2.7750    1.4564    0.0000 N   0  0  0  0  0  0  0  0  0  0  0  0
    1.7803    2.5792    0.0000 C   0  0  0  0  0  0  0  0  0  0  0  0
    2.6324    3.8137    0.0000 O   0  0  0  0  0  0  0  0  0  0  0  0
    0.3778    3.1111    0.0000 C   0  0  0  0  0  0  0  0  0  0  0  0
    0.5586    4.6001    0.0000 C   0  0  0  0  0  0  0  0  0  0  0  0
   -1.1113    2.9303    0.0000 N   0  0  0  0  0  0  0  0  0  0  0  0
   -1.6432    4.3328    0.0000 C   0  0  0  0  0  0  0  0  0  0  0  0
   -2.3458    2.0782    0.0000 C   0  0  0  0  0  0  0  0  0  0  0  0
   -3.4686    3.0729    0.0000 O   0  0  0  0  0  0  0  0  0  0  0  0
   -3.0429    0.7500    0.0000 C   0  0  0  0  0  0  0  0  0  0  0  0
   -3.0429   -0.7500    0.0000 C   0  0  0  0  0  0  0  0  0  0  0  0
   -2.3458   -2.0782    0.0000 N   0  0  0  0  0  0  0  0  0  0  0  0
   -3.4686   -3.0729    0.0000 C   0  0  0  0  0  0  0  0  0  0  0  0
   -4.8914   -2.5979    0.0000 C   0  0  0  0  0  0  0  0  0  0  0  0
   -6.0141   -3.5926    0.0000 C   0  0  0  0  0  0  0  0  0  0  0  0
   -5.1914   -1.1282    0.0000 C   0  0  0  0  0  0  0  0  0  0  0  0
   -1.1113   -2.9303    0.0000 C   0  0  0  0  0  0  0  0  0  0  0  0
   -1.6432   -4.3328    0.0000 O   0  0  0  0  0  0  0  0  0  0  0  0
    0.3778   -3.1111    0.0000 C   0  0  0  0  0  0  0  0  0  0  0  0
    1.7803   -2.5792    0.0000 N   0  0  0  0  0  0  0  0  0  0  0  0
    2.6324   -3.8137    0.0000 C   0  0  0  0  0  0  0  0  0  0  0  0
    1.9893   -5.1688    0.0000 C   0  0  0  0  0  0  0  0  0  0  0  0
    2.8414   -6.4033    0.0000 C   0  0  0  0  0  0  0  0  0  0  0  0
    4.3410   -6.4396    0.0000 C   0  0  0  0  0  0  0  0  0  0  0  0
    4.7699   -7.8769    0.0000 N   0  0  0  0  0  0  0  0  0  0  0  0
    3.5354   -8.7290    0.0000 C   0  0  0  0  0  0  0  0  0  0  0  0
    3.3426  -10.2166    0.0000 C   0  0  0  0  0  0  0  0  0  0  0  0
    1.9580  -10.7934    0.0000 C   0  0  0  0  0  0  0  0  0  0  0  0
    0.7661   -9.8826    0.0000 C   0  0  0  0  0  0  0  0  0  0  0  0
    0.9589   -8.3951    0.0000 C   0  0  0  0  0  0  0  0  0  0  0  0
    2.3436   -7.8183    0.0000 C   0  0  0  0  0  0  0  0  0  0  0  0
    2.7750   -1.4564    0.0000 C   0  0  0  0  0  0  0  0  0  0  0  0
    4.1031   -2.1535    0.0000 O   0  0  0  0  0  0  0  0  0  0  0  0
  1  2  1  0
  2  3  1  0
  3  4  2  0
  3  5  1  0
  5  6  1  0
  6  7  1  0
  7  8  1  0
  8  9  1  0
  9 10  1  0
 10 11  1  0
 11 12  1  0
 12 13  2  0
 12 14  1  0
 14 15  1  0
 14 16  1  0
 16 17  1  0
 16 18  1  0
 18 19  2  0
 18 20  1  0
 20 21  1  0
 21 22  1  0
 22 23  1  0
 23 24  1  0
 24 25  1  0
 24 26  1  0
 22 27  1  0
 27 28  2  0
 27 29  1  0
 29 30  1  0
 30 31  1  0
 31 32  1  0
 32 33  1  0
 33 34  2  0
 34 35  1  0
 35 36  1  0
 36 37  2  0
 37 38  1  0
 38 39  2  0
 39 40  1  0
 40 41  2  0
 30 42  1  0
 42 43  2  0
 42 10  1  0
 41 33  1  0
 41 36  1  0
M  END
>  <molecule_chembl_id>  (314) 
CHEMBL2170186

>  <canonical_smiles>  (314) 
CCC(=O)CCCCCC1NC(=O)C(C)N(C)C(=O)CCN(CC(C)C)C(=O)CN(CCc2c[nH]c3ccccc23)C1=O

>  <pchembl_value_mean>  (314) 
5.7

>  <document_chembl_id>  (314) 
CHEMBL2169795

$$$$

     RDKit          2D

 27 29  0  0  0  0  0  0  0  0999 V2000
    3.0000    0.0000    0.0000 N   0  0  0  0  0  0  0  0  0  0  0  0
    1.5000    0.0000    0.0000 C   0  0  0  0  0  0  0  0  0  0  0  0
    0.7500   -1.2990    0.0000 C   0  0  0  0  0  0  0  0  0  0  0  0
   -0.7500   -1.2990    0.0000 C   0  0  0  0  0  0  0  0  0  0  0  0
   -1.5000   -2.5981    0.0000 F   0  0  0  0  0  0  0  0  0  0  0  0
   -1.5000    0.0000    0.0000 C   0  0  0  0  0  0  0  0  0  0  0  0
   -0.7500    1.2990    0.0000 C   0  0  0  0  0  0  0  0  0  0  0  0
    0.7500    1.2990    0.0000 C   0  0  0  0  0  0  0  0  0  0  0  0
    1.5000    2.5981    0.0000 N   0  0  0  0  0  0  0  0  0  0  0  0
    0.7500    3.8971    0.0000 C   0  0  0  0  0  0  0  0  0  0  0  0
   -0.7500    3.8971    0.0000 O   0  0  0  0  0  0  0  0  0  0  0  0
    1.5000    5.1962    0.0000 C   0  0  0  0  0  0  0  0  0  0  0  0
    3.0000    5.1962    0.0000 C   0  0  0  0  0  0  0  0  0  0  0  0
    3.7500    6.4952    0.0000 C   0  0  0  0  0  0  0  0  0  0  0  0
    3.0000    7.7942    0.0000 C   0  0  0  0  0  0  0  0  0  0  0  0
    3.7500    9.0933    0.0000 N   0  0  0  0  0  0  0  0  0  0  0  0
    5.2500    9.0933    0.0000 C   0  0  0  0  0  0  0  0  0  0  0  0
    6.0000    7.7942    0.0000 O   0  0  0  0  0  0  0  0  0  0  0  0
    6.0000   10.3923    0.0000 C   0  0  0  0  0  0  0  0  0  0  0  0
    7.5000   10.3923    0.0000 C   0  0  0  0  0  0  0  0  0  0  0  0
    8.2500    9.0933    0.0000 C   0  0  0  0  0  0  0  0  0  0  0  0
    9.7500    9.0933    0.0000 C   0  0  0  0  0  0  0  0  0  0  0  0
   10.5000   10.3923    0.0000 C   0  0  0  0  0  0  0  0  0  0  0  0
    9.7500   11.6913    0.0000 C   0  0  0  0  0  0  0  0  0  0  0  0
    8.2500   11.6913    0.0000 C   0  0  0  0  0  0  0  0  0  0  0  0
    1.5000    7.7942    0.0000 C   0  0  0  0  0  0  0  0  0  0  0  0
    0.7500    6.4952    0.0000 N   0  0  0  0  0  0  0  0  0  0  0  0
  1  2  1  0
  2  3  2  0
  3  4  1  0
  4  5  1  0
  4  6  2  0
  6  7  1  0
  7  8  2  0
  8  9  1  0
  9 10  1  0
 10 11  2  0
 10 12  1  0
 12 13  2  0
 13 14  1  0
 14 15  2  0
 15 16  1  0
 16 17  1  0
 17 18  2  0
 17 19  1  0
 19 20  1  0
 20 21  2  0
 21 22  1  0
 22 23  2  0
 23 24  1  0
 24 25  2  0
 15 26  1  0
 26 27  2  0
  8  2  1  0
 27 12  1  0
 25 20  1  0
M  END
>  <molecule_chembl_id>  (315) 
CHEMBL4168154

>  <canonical_smiles>  (315) 
Nc1cc(F)ccc1NC(=O)c1ccc(NC(=O)Cc2ccccc2)cn1

>  <pchembl_value_mean>  (315) 
5.7

>  <document_chembl_id>  (315) 
CHEMBL4130443

$$$$

     RDKit          2D

 23 24  0  0  0  0  0  0  0  0999 V2000
    3.0000    0.0000    0.0000 N   0  0  0  0  0  0  0  0  0  0  0  0
    1.5000    0.0000    0.0000 C   0  0  0  0  0  0  0  0  0  0  0  0
    0.7500   -1.2990    0.0000 C   0  0  0  0  0  0  0  0  0  0  0  0
   -0.7500   -1.2990    0.0000 C   0  0  0  0  0  0  0  0  0  0  0  0
   -1.5000    0.0000    0.0000 C   0  0  0  0  0  0  0  0  0  0  0  0
   -0.7500    1.2990    0.0000 C   0  0  0  0  0  0  0  0  0  0  0  0
   -1.5000    2.5981    0.0000 C   0  0  0  0  0  0  0  0  0  0  0  0
   -2.9918    2.7549    0.0000 C   0  0  0  0  0  0  0  0  0  0  0  0
   -3.3037    4.2221    0.0000 C   0  0  0  0  0  0  0  0  0  0  0  0
   -4.6740    4.8322    0.0000 C   0  0  0  0  0  0  0  0  0  0  0  0
   -5.8875    3.9505    0.0000 O   0  0  0  0  0  0  0  0  0  0  0  0
   -4.8308    6.3240    0.0000 N   0  0  0  0  0  0  0  0  0  0  0  0
   -6.2011    6.9341    0.0000 C   0  0  0  0  0  0  0  0  0  0  0  0
   -6.3579    8.4259    0.0000 C   0  0  0  0  0  0  0  0  0  0  0  0
   -7.7282    9.0360    0.0000 C   0  0  0  0  0  0  0  0  0  0  0  0
   -7.8850   10.5278    0.0000 C   0  0  0  0  0  0  0  0  0  0  0  0
   -9.2553   11.1379    0.0000 C   0  0  0  0  0  0  0  0  0  0  0  0
  -10.4688   10.2562    0.0000 O   0  0  0  0  0  0  0  0  0  0  0  0
   -9.4121   12.6296    0.0000 N   0  0  0  0  0  0  0  0  0  0  0  0
  -10.7824   13.2397    0.0000 O   0  0  0  0  0  0  0  0  0  0  0  0
   -2.0046    4.9721    0.0000 N   0  0  0  0  0  0  0  0  0  0  0  0
   -0.8899    3.9684    0.0000 O   0  0  0  0  0  0  0  0  0  0  0  0
    0.7500    1.2990    0.0000 C   0  0  0  0  0  0  0  0  0  0  0  0
  1  2  1  0
  2  3  2  0
  3  4  1  0
  4  5  2  0
  5  6  1  0
  6  7  1  0
  7  8  2  0
  8  9  1  0
  9 10  1  0
 10 11  2  0
 10 12  1  0
 12 13  1  0
 13 14  1  0
 14 15  1  0
 15 16  1  0
 16 17  1  0
 17 18  2  0
 17 19  1  0
 19 20  1  0
  9 21  2  0
 21 22  1  0
  6 23  2  0
 23  2  1  0
 22  7  1  0
M  END
>  <molecule_chembl_id>  (316) 
CHEMBL446512

>  <canonical_smiles>  (316) 
Nc1cccc(-c2cc(C(=O)NCCCCC(=O)NO)no2)c1

>  <pchembl_value_mean>  (316) 
5.71

>  <document_chembl_id>  (316) 
CHEMBL1155917

$$$$

     RDKit          2D

 32 35  0  0  0  0  0  0  0  0999 V2000
   -3.0000   -7.7942    0.0000 C   0  0  0  0  0  0  0  0  0  0  0  0
   -1.5000   -7.7942    0.0000 O   0  0  0  0  0  0  0  0  0  0  0  0
   -0.7500   -6.4952    0.0000 C   0  0  0  0  0  0  0  0  0  0  0  0
   -1.5000   -5.1962    0.0000 C   0  0  0  0  0  0  0  0  0  0  0  0
   -0.7500   -3.8971    0.0000 C   0  0  0  0  0  0  0  0  0  0  0  0
    0.7500   -3.8971    0.0000 C   0  0  0  0  0  0  0  0  0  0  0  0
    1.5000   -2.5981    0.0000 C   0  0  0  0  0  0  0  0  0  0  0  0
    3.0000   -2.5981    0.0000 O   0  0  0  0  0  0  0  0  0  0  0  0
    0.7500   -1.2990    0.0000 C   0  0  0  0  0  0  0  0  0  0  0  0
    1.5000    0.0000    0.0000 C   0  0  0  0  0  0  0  0  0  0  0  0
    0.7500    1.2990    0.0000 C   0  0  0  0  0  0  0  0  0  0  0  0
   -0.7500    1.2990    0.0000 C   0  0  0  0  0  0  0  0  0  0  0  0
   -1.5000    0.0000    0.0000 C   0  0  0  0  0  0  0  0  0  0  0  0
   -2.9672    0.3119    0.0000 C   0  0  0  0  0  0  0  0  0  0  0  0
   -3.1240    1.8037    0.0000 C   0  0  0  0  0  0  0  0  0  0  0  0
   -1.7537    2.4138    0.0000 N   0  0  0  0  0  0  0  0  0  0  0  0
   -1.4418    3.8810    0.0000 C   0  0  0  0  0  0  0  0  0  0  0  0
   -2.5565    4.8847    0.0000 C   0  0  0  0  0  0  0  0  0  0  0  0
   -2.2447    6.3519    0.0000 C   0  0  0  0  0  0  0  0  0  0  0  0
   -3.3594    7.3556    0.0000 C   0  0  0  0  0  0  0  0  0  0  0  0
   -4.7860    6.8921    0.0000 C   0  0  0  0  0  0  0  0  0  0  0  0
   -5.9007    7.8958    0.0000 C   0  0  0  0  0  0  0  0  0  0  0  0
   -5.5888    9.3630    0.0000 C   0  0  0  0  0  0  0  0  0  0  0  0
   -6.7035   10.3667    0.0000 C   0  0  0  0  0  0  0  0  0  0  0  0
   -8.1301    9.9032    0.0000 O   0  0  0  0  0  0  0  0  0  0  0  0
   -6.3917   11.8339    0.0000 N   0  0  0  0  0  0  0  0  0  0  0  0
   -7.5064   12.8376    0.0000 O   0  0  0  0  0  0  0  0  0  0  0  0
   -5.0978    5.4248    0.0000 C   0  0  0  0  0  0  0  0  0  0  0  0
   -3.9831    4.4211    0.0000 C   0  0  0  0  0  0  0  0  0  0  0  0
   -0.7500   -1.2990    0.0000 C   0  0  0  0  0  0  0  0  0  0  0  0
    1.5000   -5.1962    0.0000 C   0  0  0  0  0  0  0  0  0  0  0  0
    0.7500   -6.4952    0.0000 C   0  0  0  0  0  0  0  0  0  0  0  0
  1  2  1  0
  2  3  1  0
  3  4  2  0
  4  5  1  0
  5  6  2  0
  6  7  1  0
  7  8  2  0
  7  9  1  0
  9 10  2  0
 10 11  1  0
 11 12  2  0
 12 13  1  0
 13 14  1  0
 14 15  2  0
 15 16  1  0
 16 17  1  0
 17 18  1  0
 18 19  2  0
 19 20  1  0
 20 21  2  0
 21 22  1  0
 22 23  2  3
 23 24  1  0
 24 25  2  0
 24 26  1  0
 26 27  1  0
 21 28  1  0
 28 29  2  0
 13 30  2  0
  6 31  1  0
 31 32  2  0
 32  3  1  0
 30  9  1  0
 16 12  1  0
 29 18  1  0
M  END
>  <molecule_chembl_id>  (317) 
CHEMBL4210107

>  <canonical_smiles>  (317) 
COc1ccc(C(=O)c2ccc3c(ccn3Cc3ccc(C=CC(=O)NO)cc3)c2)cc1

>  <pchembl_value_mean>  (317) 
5.71

>  <document_chembl_id>  (317) 
CHEMBL4196108

$$$$

     RDKit          2D

 24 26  0  0  0  0  0  0  0  0999 V2000
    4.6740   -4.8322    0.0000 C   0  0  0  0  0  0  0  0  0  0  0  0
    3.3037   -4.2221    0.0000 C   0  0  0  0  0  0  0  0  0  0  0  0
    2.9918   -2.7549    0.0000 C   0  0  0  0  0  0  0  0  0  0  0  0
    1.5000   -2.5981    0.0000 C   0  0  0  0  0  0  0  0  0  0  0  0
    0.7500   -1.2990    0.0000 C   0  0  0  0  0  0  0  0  0  0  0  0
    1.5000    0.0000    0.0000 C   0  0  0  0  0  0  0  0  0  0  0  0
    0.7500    1.2990    0.0000 C   0  0  0  0  0  0  0  0  0  0  0  0
   -0.7500    1.2990    0.0000 C   0  0  0  0  0  0  0  0  0  0  0  0
   -1.5000    2.5981    0.0000 F   0  0  0  0  0  0  0  0  0  0  0  0
   -1.5000    0.0000    0.0000 C   0  0  0  0  0  0  0  0  0  0  0  0
   -0.7500   -1.2990    0.0000 C   0  0  0  0  0  0  0  0  0  0  0  0
    0.8899   -3.9684    0.0000 N   0  0  0  0  0  0  0  0  0  0  0  0
   -0.5773   -4.2803    0.0000 C   0  0  0  0  0  0  0  0  0  0  0  0
   -1.0409   -5.7068    0.0000 C   0  0  0  0  0  0  0  0  0  0  0  0
   -2.5081   -6.0187    0.0000 C   0  0  0  0  0  0  0  0  0  0  0  0
   -2.9716   -7.4453    0.0000 C   0  0  0  0  0  0  0  0  0  0  0  0
   -1.9679   -8.5600    0.0000 C   0  0  0  0  0  0  0  0  0  0  0  0
   -2.4314   -9.9866    0.0000 C   0  0  0  0  0  0  0  0  0  0  0  0
   -1.4277  -11.1013    0.0000 O   0  0  0  0  0  0  0  0  0  0  0  0
   -3.8986  -10.2985    0.0000 N   0  0  0  0  0  0  0  0  0  0  0  0
   -4.3622  -11.7251    0.0000 O   0  0  0  0  0  0  0  0  0  0  0  0
   -0.5007   -8.2481    0.0000 C   0  0  0  0  0  0  0  0  0  0  0  0
   -0.0372   -6.8216    0.0000 C   0  0  0  0  0  0  0  0  0  0  0  0
    2.0046   -4.9721    0.0000 N   0  0  0  0  0  0  0  0  0  0  0  0
  1  2  1  0
  2  3  1  0
  3  4  2  0
  4  5  1  0
  5  6  2  0
  6  7  1  0
  7  8  2  0
  8  9  1  0
  8 10  1  0
 10 11  2  0
  4 12  1  0
 12 13  1  0
 13 14  1  0
 14 15  2  0
 15 16  1  0
 16 17  2  0
 17 18  1  0
 18 19  2  0
 18 20  1  0
 20 21  1  0
 17 22  1  0
 22 23  2  0
 12 24  1  0
 24  2  2  0
 11  5  1  0
 23 14  1  0
M  END
>  <molecule_chembl_id>  (318) 
CHEMBL4225230

>  <canonical_smiles>  (318) 
Cc1cc(-c2ccc(F)cc2)n(Cc2ccc(C(=O)NO)cc2)n1

>  <pchembl_value_mean>  (318) 
5.71

>  <document_chembl_id>  (318) 
CHEMBL4219109

$$$$

     RDKit          2D

 33 36  0  0  0  0  0  0  0  0999 V2000
   -7.7942  -12.6073    0.0000 N   0  0  0  0  0  0  0  0  0  0  0  0
   -9.0933  -11.8573    0.0000 C   0  0  0  0  0  0  0  0  0  0  0  0
  -10.3923  -12.6073    0.0000 C   0  0  0  0  0  0  0  0  0  0  0  0
  -11.6913  -11.8573    0.0000 C   0  0  0  0  0  0  0  0  0  0  0  0
  -11.6913  -10.3573    0.0000 C   0  0  0  0  0  0  0  0  0  0  0  0
  -10.3923   -9.6073    0.0000 C   0  0  0  0  0  0  0  0  0  0  0  0
   -9.0933  -10.3573    0.0000 C   0  0  0  0  0  0  0  0  0  0  0  0
   -7.7942   -9.6073    0.0000 N   0  0  0  0  0  0  0  0  0  0  0  0
   -6.4952  -10.3573    0.0000 C   0  0  0  0  0  0  0  0  0  0  0  0
   -6.4952  -11.8573    0.0000 O   0  0  0  0  0  0  0  0  0  0  0  0
   -5.1962   -9.6073    0.0000 C   0  0  0  0  0  0  0  0  0  0  0  0
   -3.8971  -10.3573    0.0000 C   0  0  0  0  0  0  0  0  0  0  0  0
   -2.5981   -9.6073    0.0000 C   0  0  0  0  0  0  0  0  0  0  0  0
   -2.5981   -8.1073    0.0000 C   0  0  0  0  0  0  0  0  0  0  0  0
   -1.2990   -7.3573    0.0000 C   0  0  0  0  0  0  0  0  0  0  0  0
   -1.2990   -5.8573    0.0000 N   0  0  0  0  0  0  0  0  0  0  0  0
   -0.0000   -5.1073    0.0000 C   0  0  0  0  0  0  0  0  0  0  0  0
    1.2990   -5.8573    0.0000 O   0  0  0  0  0  0  0  0  0  0  0  0
   -0.0000   -3.6073    0.0000 C   0  0  0  0  0  0  0  0  0  0  0  0
    1.2135   -2.7256    0.0000 C   0  0  0  0  0  0  0  0  0  0  0  0
    0.7500   -1.2990    0.0000 C   0  0  0  0  0  0  0  0  0  0  0  0
    1.5000    0.0000    0.0000 C   0  0  0  0  0  0  0  0  0  0  0  0
    0.7500    1.2990    0.0000 C   0  0  0  0  0  0  0  0  0  0  0  0
    1.5000    2.5981    0.0000 C   0  0  0  0  0  0  0  0  0  0  0  0
    2.2500    3.8971    0.0000 F   0  0  0  0  0  0  0  0  0  0  0  0
    2.7990    1.8481    0.0000 F   0  0  0  0  0  0  0  0  0  0  0  0
    0.2010    3.3481    0.0000 F   0  0  0  0  0  0  0  0  0  0  0  0
   -0.7500    1.2990    0.0000 C   0  0  0  0  0  0  0  0  0  0  0  0
   -1.5000    0.0000    0.0000 C   0  0  0  0  0  0  0  0  0  0  0  0
   -0.7500   -1.2990    0.0000 C   0  0  0  0  0  0  0  0  0  0  0  0
   -1.2135   -2.7256    0.0000 N   0  0  0  0  0  0  0  0  0  0  0  0
   -3.8971   -7.3573    0.0000 C   0  0  0  0  0  0  0  0  0  0  0  0
   -5.1962   -8.1073    0.0000 C   0  0  0  0  0  0  0  0  0  0  0  0
  1  2  1  0
  2  3  2  0
  3  4  1  0
  4  5  2  0
  5  6  1  0
  6  7  2  0
  7  8  1  0
  8  9  1  0
  9 10  2  0
  9 11  1  0
 11 12  2  0
 12 13  1  0
 13 14  2  0
 14 15  1  0
 15 16  1  0
 16 17  1  0
 17 18  2  0
 17 19  1  0
 19 20  2  0
 20 21  1  0
 21 22  2  0
 22 23  1  0
 23 24  1  0
 24 25  1  0
 24 26  1  0
 24 27  1  0
 23 28  2  0
 28 29  1  0
 29 30  2  0
 30 31  1  0
 14 32  1  0
 32 33  2  0
  7  2  1  0
 33 11  1  0
 31 19  1  0
 30 21  1  0
M  END
>  <molecule_chembl_id>  (319) 
CHEMBL3673108

>  <canonical_smiles>  (319) 
Nc1ccccc1NC(=O)c1ccc(CNC(=O)c2cc3cc(C(F)(F)F)ccc3[nH]2)cc1

>  <pchembl_value_mean>  (319) 
5.71

>  <document_chembl_id>  (319) 
CHEMBL3638911

$$$$

     RDKit          2D

 26 27  0  0  0  0  0  0  0  0999 V2000
   -9.9395   -1.3819    0.0000 O   0  0  0  0  0  0  0  0  0  0  0  0
  -10.3277   -2.8308    0.0000 C   0  0  0  0  0  0  0  0  0  0  0  0
   -9.2670   -3.8914    0.0000 C   0  0  0  0  0  0  0  0  0  0  0  0
   -7.8181   -3.5032    0.0000 C   0  0  0  0  0  0  0  0  0  0  0  0
   -6.7575   -4.5639    0.0000 C   0  0  0  0  0  0  0  0  0  0  0  0
   -5.3086   -4.1756    0.0000 C   0  0  0  0  0  0  0  0  0  0  0  0
   -4.2479   -5.2363    0.0000 C   0  0  0  0  0  0  0  0  0  0  0  0
   -2.7990   -4.8481    0.0000 C   0  0  0  0  0  0  0  0  0  0  0  0
   -2.0490   -6.1471    0.0000 O   0  0  0  0  0  0  0  0  0  0  0  0
   -0.7500   -6.8971    0.0000 C   0  0  0  0  0  0  0  0  0  0  0  0
    0.7500   -6.8971    0.0000 C   0  0  0  0  0  0  0  0  0  0  0  0
    2.0490   -6.1471    0.0000 C   0  0  0  0  0  0  0  0  0  0  0  0
    2.7990   -4.8481    0.0000 C   0  0  0  0  0  0  0  0  0  0  0  0
    2.7990   -3.3481    0.0000 C   0  0  0  0  0  0  0  0  0  0  0  0
    2.0490   -2.0490    0.0000 O   0  0  0  0  0  0  0  0  0  0  0  0
    0.7500   -1.2990    0.0000 C   0  0  0  0  0  0  0  0  0  0  0  0
    1.5000    0.0000    0.0000 C   0  0  0  0  0  0  0  0  0  0  0  0
    0.7500    1.2990    0.0000 C   0  0  0  0  0  0  0  0  0  0  0  0
   -0.7500    1.2990    0.0000 C   0  0  0  0  0  0  0  0  0  0  0  0
   -1.5000    0.0000    0.0000 C   0  0  0  0  0  0  0  0  0  0  0  0
   -0.7500   -1.2990    0.0000 C   0  0  0  0  0  0  0  0  0  0  0  0
   -2.0490   -2.0490    0.0000 N   0  0  0  0  0  0  0  0  0  0  0  0
   -2.7990   -3.3481    0.0000 C   0  0  0  0  0  0  0  0  0  0  0  0
   -4.2479   -2.9598    0.0000 O   0  0  0  0  0  0  0  0  0  0  0  0
  -11.7766   -3.2190    0.0000 N   0  0  0  0  0  0  0  0  0  0  0  0
  -12.8372   -2.1583    0.0000 O   0  0  0  0  0  0  0  0  0  0  0  0
  1  2  2  0
  2  3  1  0
  3  4  1  0
  4  5  1  0
  5  6  1  0
  6  7  1  0
  7  8  1  0
  8  9  1  0
  9 10  1  0
 10 11  1  0
 11 12  1  0
 12 13  1  0
 13 14  1  0
 14 15  1  0
 15 16  1  0
 16 17  2  0
 17 18  1  0
 18 19  2  0
 19 20  1  0
 20 21  2  0
 21 22  1  0
 22 23  1  0
 23 24  2  0
  2 25  1  0
 25 26  1  0
 23  8  1  0
 21 16  1  0
M  END
>  <molecule_chembl_id>  (320) 
CHEMBL1631910

>  <canonical_smiles>  (320) 
O=C(CCCCCC1OCCCCCOc2ccccc2NC1=O)NO

>  <pchembl_value_mean>  (320) 
5.71

>  <document_chembl_id>  (320) 
CHEMBL1629537

$$$$

     RDKit          2D

 39 43  0  0  0  0  0  0  0  0999 V2000
    3.7500   -1.2990    0.0000 C   0  0  0  0  0  0  0  0  0  0  0  0
    3.0000    0.0000    0.0000 O   0  0  0  0  0  0  0  0  0  0  0  0
    1.5000    0.0000    0.0000 C   0  0  0  0  0  0  0  0  0  0  0  0
    0.7500   -1.2990    0.0000 C   0  0  0  0  0  0  0  0  0  0  0  0
   -0.7500   -1.2990    0.0000 C   0  0  0  0  0  0  0  0  0  0  0  0
   -1.5000    0.0000    0.0000 C   0  0  0  0  0  0  0  0  0  0  0  0
   -3.0000    0.0000    0.0000 C   0  0  0  0  0  0  0  0  0  0  0  0
   -3.8817   -1.2135    0.0000 C   0  0  0  0  0  0  0  0  0  0  0  0
   -5.3083   -0.7500    0.0000 C   0  0  0  0  0  0  0  0  0  0  0  0
   -6.5218   -1.6317    0.0000 C   0  0  0  0  0  0  0  0  0  0  0  0
   -7.8921   -1.0216    0.0000 C   0  0  0  0  0  0  0  0  0  0  0  0
   -9.1056   -1.9033    0.0000 C   0  0  0  0  0  0  0  0  0  0  0  0
   -8.9488   -3.3950    0.0000 C   0  0  0  0  0  0  0  0  0  0  0  0
   -7.5785   -4.0051    0.0000 C   0  0  0  0  0  0  0  0  0  0  0  0
   -6.3650   -3.1235    0.0000 C   0  0  0  0  0  0  0  0  0  0  0  0
   -5.3083    0.7500    0.0000 N   0  0  0  0  0  0  0  0  0  0  0  0
   -3.8817    1.2135    0.0000 C   0  0  0  0  0  0  0  0  0  0  0  0
   -3.4182    2.6401    0.0000 C   0  0  0  0  0  0  0  0  0  0  0  0
   -1.9509    2.9520    0.0000 O   0  0  0  0  0  0  0  0  0  0  0  0
   -4.4218    3.7548    0.0000 N   0  0  0  0  0  0  0  0  0  0  0  0
   -3.9583    5.1814    0.0000 C   0  0  0  0  0  0  0  0  0  0  0  0
   -4.9620    6.2961    0.0000 C   0  0  0  0  0  0  0  0  0  0  0  0
   -4.4985    7.7227    0.0000 C   0  0  0  0  0  0  0  0  0  0  0  0
   -5.5022    8.8374    0.0000 C   0  0  0  0  0  0  0  0  0  0  0  0
   -6.9694    8.5256    0.0000 C   0  0  0  0  0  0  0  0  0  0  0  0
   -7.9731    9.6403    0.0000 C   0  0  0  0  0  0  0  0  0  0  0  0
   -9.4403    9.3284    0.0000 O   0  0  0  0  0  0  0  0  0  0  0  0
   -7.5096   11.0669    0.0000 N   0  0  0  0  0  0  0  0  0  0  0  0
   -8.5133   12.1816    0.0000 C   0  0  0  0  0  0  0  0  0  0  0  0
   -8.0498   13.6082    0.0000 C   0  0  0  0  0  0  0  0  0  0  0  0
   -9.0534   14.7229    0.0000 C   0  0  0  0  0  0  0  0  0  0  0  0
  -10.5207   14.4110    0.0000 C   0  0  0  0  0  0  0  0  0  0  0  0
  -10.9842   12.9844    0.0000 C   0  0  0  0  0  0  0  0  0  0  0  0
   -9.9805   11.8697    0.0000 C   0  0  0  0  0  0  0  0  0  0  0  0
  -10.4440   10.4431    0.0000 S   0  0  0  0  0  0  0  0  0  0  0  0
   -7.4329    7.0990    0.0000 C   0  0  0  0  0  0  0  0  0  0  0  0
   -6.4292    5.9843    0.0000 C   0  0  0  0  0  0  0  0  0  0  0  0
   -0.7500    1.2990    0.0000 C   0  0  0  0  0  0  0  0  0  0  0  0
    0.7500    1.2990    0.0000 C   0  0  0  0  0  0  0  0  0  0  0  0
  1  2  1  0
  2  3  1  0
  3  4  2  0
  4  5  1  0
  5  6  2  0
  6  7  1  0
  7  8  1  0
  8  9  2  0
  9 10  1  0
 10 11  2  0
 11 12  1  0
 12 13  2  0
 13 14  1  0
 14 15  2  0
  9 16  1  0
 16 17  1  0
 17 18  1  0
 18 19  2  0
 18 20  1  0
 20 21  1  0
 21 22  1  0
 22 23  2  0
 23 24  1  0
 24 25  2  0
 25 26  1  0
 26 27  2  0
 26 28  1  0
 28 29  1  0
 29 30  2  0
 30 31  1  0
 31 32  2  0
 32 33  1  0
 33 34  2  0
 34 35  1  0
 25 36  1  0
 36 37  2  0
  6 38  1  0
 38 39  2  0
 39  3  1  0
 17  7  2  0
 37 22  1  0
 15 10  1  0
 34 29  1  0
M  END
>  <molecule_chembl_id>  (321) 
CHEMBL3670667

>  <canonical_smiles>  (321) 
COc1ccc(-c2cc(-c3ccccc3)[nH]c2C(=O)NCc2ccc(C(=O)Nc3ccccc3S)cc2)cc1

>  <pchembl_value_mean>  (321) 
5.72

>  <document_chembl_id>  (321) 
CHEMBL3638813

$$$$

     RDKit          2D

 39 42  0  0  0  0  0  0  0  0999 V2000
  -10.5000  -10.3923    0.0000 N   0  0  0  0  0  0  0  0  0  0  0  0
  -12.0000  -10.3923    0.0000 C   0  0  0  0  0  0  0  0  0  0  0  0
  -12.7500  -11.6913    0.0000 C   0  0  0  0  0  0  0  0  0  0  0  0
  -14.2500  -11.6913    0.0000 C   0  0  0  0  0  0  0  0  0  0  0  0
  -15.0000  -10.3923    0.0000 C   0  0  0  0  0  0  0  0  0  0  0  0
  -14.2500   -9.0933    0.0000 C   0  0  0  0  0  0  0  0  0  0  0  0
  -12.7500   -9.0933    0.0000 C   0  0  0  0  0  0  0  0  0  0  0  0
  -12.0000   -7.7942    0.0000 N   0  0  0  0  0  0  0  0  0  0  0  0
  -10.5000   -7.7942    0.0000 C   0  0  0  0  0  0  0  0  0  0  0  0
   -9.7500   -9.0933    0.0000 O   0  0  0  0  0  0  0  0  0  0  0  0
   -9.7500   -6.4952    0.0000 C   0  0  0  0  0  0  0  0  0  0  0  0
   -8.2500   -6.4952    0.0000 C   0  0  0  0  0  0  0  0  0  0  0  0
   -7.5000   -5.1962    0.0000 C   0  0  0  0  0  0  0  0  0  0  0  0
   -6.0000   -5.1962    0.0000 C   0  0  0  0  0  0  0  0  0  0  0  0
   -5.2500   -3.8971    0.0000 C   0  0  0  0  0  0  0  0  0  0  0  0
   -3.7500   -3.8971    0.0000 N   0  0  0  0  0  0  0  0  0  0  0  0
   -3.0000   -5.1962    0.0000 C   0  0  0  0  0  0  0  0  0  0  0  0
   -3.7500   -6.4952    0.0000 C   0  0  0  0  0  0  0  0  0  0  0  0
   -5.2500   -6.4952    0.0000 O   0  0  0  0  0  0  0  0  0  0  0  0
   -3.0000   -7.7942    0.0000 N   0  0  0  0  0  0  0  0  0  0  0  0
   -3.7500   -9.0933    0.0000 C   0  0  0  0  0  0  0  0  0  0  0  0
   -3.0000  -10.3923    0.0000 C   0  0  0  0  0  0  0  0  0  0  0  0
   -3.7500  -11.6913    0.0000 C   0  0  0  0  0  0  0  0  0  0  0  0
   -3.0000  -12.9904    0.0000 C   0  0  0  0  0  0  0  0  0  0  0  0
   -1.5000  -12.9904    0.0000 C   0  0  0  0  0  0  0  0  0  0  0  0
   -0.7500  -11.6913    0.0000 C   0  0  0  0  0  0  0  0  0  0  0  0
   -1.5000  -10.3923    0.0000 C   0  0  0  0  0  0  0  0  0  0  0  0
   -3.0000   -2.5981    0.0000 C   0  0  0  0  0  0  0  0  0  0  0  0
   -3.7500   -1.2990    0.0000 O   0  0  0  0  0  0  0  0  0  0  0  0
   -1.5000   -2.5981    0.0000 C   0  0  0  0  0  0  0  0  0  0  0  0
   -0.7500   -3.8971    0.0000 C   0  0  0  0  0  0  0  0  0  0  0  0
    0.7500   -3.8971    0.0000 C   0  0  0  0  0  0  0  0  0  0  0  0
    1.5000   -2.5981    0.0000 C   0  0  0  0  0  0  0  0  0  0  0  0
    0.7500   -1.2990    0.0000 C   0  0  0  0  0  0  0  0  0  0  0  0
    1.5000    0.0000    0.0000 C   0  0  0  0  0  0  0  0  0  0  0  0
    0.7500    1.2990    0.0000 C   0  0  0  0  0  0  0  0  0  0  0  0
   -0.7500    1.2990    0.0000 C   0  0  0  0  0  0  0  0  0  0  0  0
   -1.5000    0.0000    0.0000 C   0  0  0  0  0  0  0  0  0  0  0  0
   -0.7500   -1.2990    0.0000 C   0  0  0  0  0  0  0  0  0  0  0  0
  1  2  1  0
  2  3  2  0
  3  4  1  0
  4  5  2  0
  5  6  1  0
  6  7  2  0
  7  8  1  0
  8  9  1  0
  9 10  2  0
  9 11  1  0
 11 12  1  0
 12 13  1  0
 13 14  1  0
 14 15  1  0
 15 16  1  0
 16 17  1  0
 17 18  1  0
 18 19  2  0
 18 20  1  0
 20 21  1  0
 21 22  1  0
 22 23  2  0
 23 24  1  0
 24 25  2  0
 25 26  1  0
 26 27  2  0
 16 28  1  0
 28 29  2  0
 28 30  1  0
 30 31  2  0
 31 32  1  0
 32 33  2  0
 33 34  1  0
 34 35  2  0
 35 36  1  0
 36 37  2  0
 37 38  1  0
 38 39  2  0
  7  2  1  0
 27 22  1  0
 39 30  1  0
 39 34  1  0
M  END
>  <molecule_chembl_id>  (322) 
CHEMBL4578162

>  <canonical_smiles>  (322) 
Nc1ccccc1NC(=O)CCCCCN(CC(=O)NCc1ccccc1)C(=O)c1cccc2ccccc12

>  <pchembl_value_mean>  (322) 
5.72

>  <document_chembl_id>  (322) 
CHEMBL4334526

$$$$

     RDKit          2D

 40 44  0  0  0  0  0  0  0  0999 V2000
  -11.2424  -19.0989    0.0000 C   0  0  0  0  0  0  0  0  0  0  0  0
   -9.8721  -19.7090    0.0000 O   0  0  0  0  0  0  0  0  0  0  0  0
   -8.6586  -18.8274    0.0000 C   0  0  0  0  0  0  0  0  0  0  0  0
   -8.8154  -17.3356    0.0000 C   0  0  0  0  0  0  0  0  0  0  0  0
   -7.6019  -16.4539    0.0000 C   0  0  0  0  0  0  0  0  0  0  0  0
   -6.2315  -17.0640    0.0000 C   0  0  0  0  0  0  0  0  0  0  0  0
   -5.0180  -16.1823    0.0000 C   0  0  0  0  0  0  0  0  0  0  0  0
   -3.6477  -16.7924    0.0000 O   0  0  0  0  0  0  0  0  0  0  0  0
   -5.1748  -14.6905    0.0000 N   0  0  0  0  0  0  0  0  0  0  0  0
   -3.9613  -13.8089    0.0000 C   0  0  0  0  0  0  0  0  0  0  0  0
   -4.1181  -12.3171    0.0000 C   0  0  0  0  0  0  0  0  0  0  0  0
   -2.9046  -11.4354    0.0000 C   0  0  0  0  0  0  0  0  0  0  0  0
   -3.0613   -9.9436    0.0000 C   0  0  0  0  0  0  0  0  0  0  0  0
   -1.8478   -9.0619    0.0000 C   0  0  0  0  0  0  0  0  0  0  0  0
   -0.4775   -9.6721    0.0000 N   0  0  0  0  0  0  0  0  0  0  0  0
   -0.3207  -11.1638    0.0000 C   0  0  0  0  0  0  0  0  0  0  0  0
   -1.5342  -12.0455    0.0000 O   0  0  0  0  0  0  0  0  0  0  0  0
    1.0496  -11.7739    0.0000 C   0  0  0  0  0  0  0  0  0  0  0  0
    2.3486  -11.0239    0.0000 C   0  0  0  0  0  0  0  0  0  0  0  0
    3.4634  -12.0276    0.0000 N   0  0  0  0  0  0  0  0  0  0  0  0
    2.8533  -13.3980    0.0000 C   0  0  0  0  0  0  0  0  0  0  0  0
    1.3615  -13.2412    0.0000 S   0  0  0  0  0  0  0  0  0  0  0  0
   -2.0046   -7.5702    0.0000 C   0  0  0  0  0  0  0  0  0  0  0  0
   -3.3037   -6.8202    0.0000 N   0  0  0  0  0  0  0  0  0  0  0  0
   -2.9918   -5.3529    0.0000 C   0  0  0  0  0  0  0  0  0  0  0  0
   -1.5000   -5.1962    0.0000 C   0  0  0  0  0  0  0  0  0  0  0  0
   -0.7500   -3.8971    0.0000 C   0  0  0  0  0  0  0  0  0  0  0  0
    0.7500   -3.8971    0.0000 C   0  0  0  0  0  0  0  0  0  0  0  0
    1.5000   -2.5981    0.0000 C   0  0  0  0  0  0  0  0  0  0  0  0
    0.7500   -1.2990    0.0000 C   0  0  0  0  0  0  0  0  0  0  0  0
    1.5000    0.0000    0.0000 C   0  0  0  0  0  0  0  0  0  0  0  0
    0.7500    1.2990    0.0000 C   0  0  0  0  0  0  0  0  0  0  0  0
   -0.7500    1.2990    0.0000 C   0  0  0  0  0  0  0  0  0  0  0  0
   -1.5000    0.0000    0.0000 C   0  0  0  0  0  0  0  0  0  0  0  0
   -0.7500   -1.2990    0.0000 C   0  0  0  0  0  0  0  0  0  0  0  0
   -1.5000   -2.5981    0.0000 C   0  0  0  0  0  0  0  0  0  0  0  0
   -0.8899   -6.5665    0.0000 N   0  0  0  0  0  0  0  0  0  0  0  0
   -6.0748  -18.5558    0.0000 C   0  0  0  0  0  0  0  0  0  0  0  0
   -4.7044  -19.1659    0.0000 O   0  0  0  0  0  0  0  0  0  0  0  0
   -7.2883  -19.4375    0.0000 C   0  0  0  0  0  0  0  0  0  0  0  0
  1  2  1  0
  2  3  1  0
  3  4  2  0
  4  5  1  0
  5  6  2  0
  6  7  1  0
  7  8  2  0
  7  9  1  0
  9 10  1  0
 10 11  1  0
 11 12  1  0
 12 13  1  0
 13 14  1  0
 14 15  1  0
 15 16  1  0
 16 17  2  0
 16 18  1  0
 18 19  2  0
 19 20  1  0
 20 21  2  0
 21 22  1  0
 14 23  1  0
 23 24  2  0
 24 25  1  0
 25 26  2  0
 26 27  1  0
 27 28  2  0
 28 29  1  0
 29 30  2  0
 30 31  1  0
 31 32  2  0
 32 33  1  0
 33 34  2  0
 34 35  1  0
 35 36  2  0
 26 37  1  0
  6 38  1  0
 38 39  1  0
 38 40  2  0
 40  3  1  0
 22 18  1  0
 37 23  1  0
 36 27  1  0
 35 30  1  0
M  END
>  <molecule_chembl_id>  (323) 
CHEMBL4765131

>  <canonical_smiles>  (323) 
COc1ccc(C(=O)NCCCCC(NC(=O)c2cncs2)c2ncc(-c3ccc4ccccc4c3)[nH]2)c(O)c1

>  <pchembl_value_mean>  (323) 
5.72

>  <document_chembl_id>  (323) 
CHEMBL4725494

$$$$

     RDKit          2D

 43 48  0  0  0  0  0  0  0  0999 V2000
   14.4844   -5.3176    0.0000 C   0  0  0  0  0  0  0  0  0  0  0  0
   13.8743   -3.9473    0.0000 C   0  0  0  0  0  0  0  0  0  0  0  0
   12.3825   -3.7905    0.0000 C   0  0  0  0  0  0  0  0  0  0  0  0
   11.7724   -2.4202    0.0000 C   0  0  0  0  0  0  0  0  0  0  0  0
   12.5224   -1.1212    0.0000 N   0  0  0  0  0  0  0  0  0  0  0  0
   11.5187   -0.0064    0.0000 N   0  0  0  0  0  0  0  0  0  0  0  0
   11.8306    1.4608    0.0000 C   0  0  0  0  0  0  0  0  0  0  0  0
   10.1484   -0.6166    0.0000 C   0  0  0  0  0  0  0  0  0  0  0  0
    8.7781   -0.0064    0.0000 C   0  0  0  0  0  0  0  0  0  0  0  0
    8.6213    1.4853    0.0000 O   0  0  0  0  0  0  0  0  0  0  0  0
    7.5645   -0.8881    0.0000 N   0  0  0  0  0  0  0  0  0  0  0  0
    7.7213   -2.3799    0.0000 C   0  0  0  0  0  0  0  0  0  0  0  0
    6.5078   -3.2616    0.0000 C   0  0  0  0  0  0  0  0  0  0  0  0
    5.1375   -2.6515    0.0000 C   0  0  0  0  0  0  0  0  0  0  0  0
    3.9240   -3.5332    0.0000 C   0  0  0  0  0  0  0  0  0  0  0  0
    2.5537   -2.9231    0.0000 N   0  0  0  0  0  0  0  0  0  0  0  0
    1.2546   -3.6731    0.0000 C   0  0  0  0  0  0  0  0  0  0  0  0
    0.1399   -2.6694    0.0000 C   0  0  0  0  0  0  0  0  0  0  0  0
    0.7500   -1.2990    0.0000 C   0  0  0  0  0  0  0  0  0  0  0  0
    1.5000    0.0000    0.0000 C   0  0  0  0  0  0  0  0  0  0  0  0
    0.7500    1.2990    0.0000 C   0  0  0  0  0  0  0  0  0  0  0  0
   -0.7500    1.2990    0.0000 N   0  0  0  0  0  0  0  0  0  0  0  0
   -1.5000    2.5981    0.0000 C   0  0  0  0  0  0  0  0  0  0  0  0
   -0.7500    3.8971    0.0000 N   0  0  0  0  0  0  0  0  0  0  0  0
   -1.5000    5.1962    0.0000 C   0  0  0  0  0  0  0  0  0  0  0  0
   -3.0000    5.1962    0.0000 C   0  0  0  0  0  0  0  0  0  0  0  0
   -3.7500    6.4952    0.0000 C   0  0  0  0  0  0  0  0  0  0  0  0
   -5.2500    6.4952    0.0000 O   0  0  0  0  0  0  0  0  0  0  0  0
   -3.0000    7.7942    0.0000 N   0  0  0  0  0  0  0  0  0  0  0  0
   -3.7500    9.0933    0.0000 O   0  0  0  0  0  0  0  0  0  0  0  0
   -3.7500    3.8971    0.0000 C   0  0  0  0  0  0  0  0  0  0  0  0
   -3.0000    2.5981    0.0000 N   0  0  0  0  0  0  0  0  0  0  0  0
   -1.5000    0.0000    0.0000 C   0  0  0  0  0  0  0  0  0  0  0  0
   -0.7500   -1.2990    0.0000 C   0  0  0  0  0  0  0  0  0  0  0  0
    2.2418   -1.4558    0.0000 C   0  0  0  0  0  0  0  0  0  0  0  0
    4.0808   -5.0249    0.0000 C   0  0  0  0  0  0  0  0  0  0  0  0
    5.4511   -5.6350    0.0000 C   0  0  0  0  0  0  0  0  0  0  0  0
    6.6646   -4.7534    0.0000 C   0  0  0  0  0  0  0  0  0  0  0  0
    8.0349   -5.3635    0.0000 O   0  0  0  0  0  0  0  0  0  0  0  0
    8.1917   -6.8553    0.0000 C   0  0  0  0  0  0  0  0  0  0  0  0
    9.5620   -7.4654    0.0000 C   0  0  0  0  0  0  0  0  0  0  0  0
    9.0917   -2.9900    0.0000 N   0  0  0  0  0  0  0  0  0  0  0  0
   10.3052   -2.1083    0.0000 C   0  0  0  0  0  0  0  0  0  0  0  0
  1  2  1  0
  2  3  1  0
  3  4  1  0
  4  5  2  0
  5  6  1  0
  6  7  1  0
  6  8  1  0
  8  9  1  0
  9 10  2  0
  9 11  1  0
 11 12  1  0
 12 13  1  0
 13 14  2  0
 14 15  1  0
 15 16  1  0
 16 17  1  0
 17 18  1  0
 18 19  1  0
 19 20  1  0
 20 21  1  0
 21 22  1  0
 22 23  1  0
 23 24  2  0
 24 25  1  0
 25 26  2  0
 26 27  1  0
 27 28  2  0
 27 29  1  0
 29 30  1  0
 26 31  1  0
 31 32  2  0
 22 33  1  0
 33 34  1  0
 19 35  1  0
 15 36  2  0
 36 37  1  0
 37 38  2  0
 38 39  1  0
 39 40  1  0
 40 41  1  0
 12 42  2  0
 42 43  1  0
 43  4  1  0
 43  8  2  0
 38 13  1  0
 35 16  1  0
 34 19  1  0
 32 23  1  0
M  END
>  <molecule_chembl_id>  (324) 
CHEMBL3982925

>  <canonical_smiles>  (324) 
CCCc1nn(C)c2c(=O)[nH]c(-c3cc(N4CCC5(CCN(c6ncc(C(=O)NO)cn6)CC5)C4)ccc3OCC)nc12

>  <pchembl_value_mean>  (324) 
5.73

>  <document_chembl_id>  (324) 
CHEMBL3860059

$$$$

     RDKit          2D

 25 27  0  0  0  0  0  0  0  0999 V2000
    3.7500    1.2990    0.0000 O   0  0  0  0  0  0  0  0  0  0  0  0
    3.0000    0.0000    0.0000 C   0  0  0  0  0  0  0  0  0  0  0  0
    3.7500   -1.2990    0.0000 N   0  0  0  0  0  0  0  0  0  0  0  0
    5.2500   -1.2990    0.0000 O   0  0  0  0  0  0  0  0  0  0  0  0
    1.5000    0.0000    0.0000 C   0  0  0  0  0  0  0  0  0  0  0  0
    0.7500   -1.2990    0.0000 C   0  0  0  0  0  0  0  0  0  0  0  0
   -0.7500   -1.2990    0.0000 C   0  0  0  0  0  0  0  0  0  0  0  0
   -1.5000    0.0000    0.0000 C   0  0  0  0  0  0  0  0  0  0  0  0
   -0.7500    1.2990    0.0000 C   0  0  0  0  0  0  0  0  0  0  0  0
   -1.5000    2.5981    0.0000 C   0  0  0  0  0  0  0  0  0  0  0  0
   -0.7500    3.8971    0.0000 C   0  0  0  0  0  0  0  0  0  0  0  0
   -1.5000    5.1962    0.0000 C   0  0  0  0  0  0  0  0  0  0  0  0
   -0.7500    6.4952    0.0000 C   0  0  0  0  0  0  0  0  0  0  0  0
   -1.5000    7.7942    0.0000 C   0  0  0  0  0  0  0  0  0  0  0  0
   -3.0000    7.7942    0.0000 N   0  0  0  0  0  0  0  0  0  0  0  0
   -3.7500    6.4952    0.0000 C   0  0  0  0  0  0  0  0  0  0  0  0
   -5.2500    6.4952    0.0000 C   0  0  0  0  0  0  0  0  0  0  0  0
   -6.0000    7.7942    0.0000 C   0  0  0  0  0  0  0  0  0  0  0  0
   -7.5000    7.7942    0.0000 C   0  0  0  0  0  0  0  0  0  0  0  0
   -8.2500    6.4952    0.0000 C   0  0  0  0  0  0  0  0  0  0  0  0
   -7.5000    5.1962    0.0000 C   0  0  0  0  0  0  0  0  0  0  0  0
   -6.0000    5.1962    0.0000 C   0  0  0  0  0  0  0  0  0  0  0  0
   -5.2500    3.8971    0.0000 O   0  0  0  0  0  0  0  0  0  0  0  0
   -3.0000    5.1962    0.0000 C   0  0  0  0  0  0  0  0  0  0  0  0
    0.7500    1.2990    0.0000 C   0  0  0  0  0  0  0  0  0  0  0  0
  1  2  2  0
  2  3  1  0
  3  4  1  0
  2  5  1  0
  5  6  2  0
  6  7  1  0
  7  8  2  0
  8  9  1  0
  9 10  1  0
 10 11  2  3
 11 12  1  0
 12 13  2  0
 13 14  1  0
 14 15  2  0
 15 16  1  0
 16 17  1  0
 17 18  2  0
 18 19  1  0
 19 20  2  0
 20 21  1  0
 21 22  2  0
 22 23  1  0
 16 24  2  0
  9 25  2  0
 25  5  1  0
 24 12  1  0
 22 17  1  0
M  END
>  <molecule_chembl_id>  (325) 
CHEMBL5070176

>  <canonical_smiles>  (325) 
O=C(NO)c1cccc(C=Cc2ccnc(-c3ccccc3O)c2)c1

>  <pchembl_value_mean>  (325) 
5.73

>  <document_chembl_id>  (325) 
CHEMBL5038581

$$$$

     RDKit          2D

 34 38  0  0  0  0  0  0  0  0999 V2000
   -7.1652   -9.6414    0.0000 C   0  0  0  0  0  0  0  0  0  0  0  0
   -5.7949   -9.0313    0.0000 C   0  0  0  0  0  0  0  0  0  0  0  0
   -5.6381   -7.5395    0.0000 C   0  0  0  0  0  0  0  0  0  0  0  0
   -4.2677   -6.9294    0.0000 N   0  0  0  0  0  0  0  0  0  0  0  0
   -3.0542   -7.8111    0.0000 C   0  0  0  0  0  0  0  0  0  0  0  0
   -1.6839   -7.2010    0.0000 C   0  0  0  0  0  0  0  0  0  0  0  0
   -0.4704   -8.0826    0.0000 O   0  0  0  0  0  0  0  0  0  0  0  0
   -1.5271   -5.7092    0.0000 N   0  0  0  0  0  0  0  0  0  0  0  0
   -2.7406   -4.8275    0.0000 C   0  0  0  0  0  0  0  0  0  0  0  0
   -2.5838   -3.3357    0.0000 C   0  0  0  0  0  0  0  0  0  0  0  0
   -1.2135   -2.7256    0.0000 C   0  0  0  0  0  0  0  0  0  0  0  0
   -0.0000   -3.6073    0.0000 C   0  0  0  0  0  0  0  0  0  0  0  0
    1.2135   -2.7256    0.0000 N   0  0  0  0  0  0  0  0  0  0  0  0
    2.6401   -3.1891    0.0000 C   0  0  0  0  0  0  0  0  0  0  0  0
    3.7548   -2.1855    0.0000 C   0  0  0  0  0  0  0  0  0  0  0  0
    5.1814   -2.6490    0.0000 C   0  0  0  0  0  0  0  0  0  0  0  0
    6.2961   -1.6453    0.0000 C   0  0  0  0  0  0  0  0  0  0  0  0
    5.9843   -0.1781    0.0000 C   0  0  0  0  0  0  0  0  0  0  0  0
    7.0990    0.8256    0.0000 C   0  0  0  0  0  0  0  0  0  0  0  0
    6.7871    2.2929    0.0000 O   0  0  0  0  0  0  0  0  0  0  0  0
    8.5256    0.3621    0.0000 N   0  0  0  0  0  0  0  0  0  0  0  0
    9.6403    1.3658    0.0000 O   0  0  0  0  0  0  0  0  0  0  0  0
    4.5577    0.2855    0.0000 C   0  0  0  0  0  0  0  0  0  0  0  0
    3.4430   -0.7182    0.0000 C   0  0  0  0  0  0  0  0  0  0  0  0
    0.7500   -1.2990    0.0000 C   0  0  0  0  0  0  0  0  0  0  0  0
    1.5000    0.0000    0.0000 C   0  0  0  0  0  0  0  0  0  0  0  0
    0.7500    1.2990    0.0000 C   0  0  0  0  0  0  0  0  0  0  0  0
   -0.7500    1.2990    0.0000 C   0  0  0  0  0  0  0  0  0  0  0  0
   -1.5000    0.0000    0.0000 C   0  0  0  0  0  0  0  0  0  0  0  0
   -0.7500   -1.2990    0.0000 C   0  0  0  0  0  0  0  0  0  0  0  0
   -0.1568   -5.0991    0.0000 C   0  0  0  0  0  0  0  0  0  0  0  0
    1.0567   -5.9808    0.0000 C   0  0  0  0  0  0  0  0  0  0  0  0
   -4.1110   -5.4376    0.0000 C   0  0  0  0  0  0  0  0  0  0  0  0
   -5.3245   -4.5559    0.0000 O   0  0  0  0  0  0  0  0  0  0  0  0
  1  2  1  0
  2  3  1  0
  3  4  1  0
  4  5  1  0
  5  6  1  0
  6  7  2  0
  6  8  1  0
  8  9  1  0
  9 10  1  0
 10 11  1  0
 11 12  2  0
 12 13  1  0
 13 14  1  0
 14 15  1  0
 15 16  2  0
 16 17  1  0
 17 18  2  0
 18 19  1  0
 19 20  2  0
 19 21  1  0
 21 22  1  0
 18 23  1  0
 23 24  2  0
 13 25  1  0
 25 26  2  0
 26 27  1  0
 27 28  2  0
 28 29  1  0
 29 30  2  0
 12 31  1  0
 31 32  1  0
  9 33  1  0
 33 34  2  0
 33  4  1  0
 31  8  1  0
 30 11  1  0
 24 15  1  0
 30 25  1  0
M  END
>  <molecule_chembl_id>  (326) 
CHEMBL4294514

>  <canonical_smiles>  (326) 
CCCN1CC(=O)N2C(Cc3c(n(Cc4ccc(C(=O)NO)cc4)c4ccccc34)C2C)C1=O

>  <pchembl_value_mean>  (326) 
5.73

>  <document_chembl_id>  (326) 
CHEMBL4270518

$$$$

     RDKit          2D

 32 35  0  0  0  0  0  0  0  0999 V2000
    6.0000   -0.0000    0.0000 C   0  0  0  0  0  0  0  0  0  0  0  0
    5.2500   -1.2990    0.0000 C   0  0  0  0  0  0  0  0  0  0  0  0
    3.7500   -1.2990    0.0000 O   0  0  0  0  0  0  0  0  0  0  0  0
    3.0000   -2.5981    0.0000 C   0  0  0  0  0  0  0  0  0  0  0  0
    3.7500   -3.8971    0.0000 C   0  0  0  0  0  0  0  0  0  0  0  0
    3.0000   -5.1962    0.0000 C   0  0  0  0  0  0  0  0  0  0  0  0
    1.5000   -5.1962    0.0000 C   0  0  0  0  0  0  0  0  0  0  0  0
    0.7500   -6.4952    0.0000 C   0  0  0  0  0  0  0  0  0  0  0  0
   -0.7500   -6.4952    0.0000 C   0  0  0  0  0  0  0  0  0  0  0  0
   -1.5000   -7.7942    0.0000 C   0  0  0  0  0  0  0  0  0  0  0  0
   -0.7500   -9.0933    0.0000 C   0  0  0  0  0  0  0  0  0  0  0  0
   -1.5000  -10.3923    0.0000 C   0  0  0  0  0  0  0  0  0  0  0  0
   -0.7500  -11.6913    0.0000 O   0  0  0  0  0  0  0  0  0  0  0  0
   -3.0000  -10.3923    0.0000 N   0  0  0  0  0  0  0  0  0  0  0  0
   -3.7500  -11.6913    0.0000 O   0  0  0  0  0  0  0  0  0  0  0  0
    0.7500   -9.0933    0.0000 C   0  0  0  0  0  0  0  0  0  0  0  0
    1.5000   -7.7942    0.0000 N   0  0  0  0  0  0  0  0  0  0  0  0
    0.7500   -3.8971    0.0000 C   0  0  0  0  0  0  0  0  0  0  0  0
    1.5000   -2.5981    0.0000 C   0  0  0  0  0  0  0  0  0  0  0  0
    0.7500   -1.2990    0.0000 C   0  0  0  0  0  0  0  0  0  0  0  0
    1.5000    0.0000    0.0000 N   0  0  0  0  0  0  0  0  0  0  0  0
    0.7500    1.2990    0.0000 C   0  0  0  0  0  0  0  0  0  0  0  0
    1.2135    2.7256    0.0000 C   0  0  0  0  0  0  0  0  0  0  0  0
    2.6401    3.1891    0.0000 C   0  0  0  0  0  0  0  0  0  0  0  0
    2.9520    4.6564    0.0000 C   0  0  0  0  0  0  0  0  0  0  0  0
    0.0000    3.6073    0.0000 N   0  0  0  0  0  0  0  0  0  0  0  0
   -1.2135    2.7256    0.0000 N   0  0  0  0  0  0  0  0  0  0  0  0
   -2.6401    3.1891    0.0000 C   0  0  0  0  0  0  0  0  0  0  0  0
   -0.7500    1.2990    0.0000 C   0  0  0  0  0  0  0  0  0  0  0  0
   -1.5000    0.0000    0.0000 C   0  0  0  0  0  0  0  0  0  0  0  0
   -3.0000    0.0000    0.0000 O   0  0  0  0  0  0  0  0  0  0  0  0
   -0.7500   -1.2990    0.0000 N   0  0  0  0  0  0  0  0  0  0  0  0
  1  2  1  0
  2  3  1  0
  3  4  1  0
  4  5  2  0
  5  6  1  0
  6  7  2  0
  7  8  1  0
  8  9  2  0
  9 10  1  0
 10 11  2  0
 11 12  1  0
 12 13  2  0
 12 14  1  0
 14 15  1  0
 11 16  1  0
 16 17  2  0
  7 18  1  0
 18 19  2  0
 19 20  1  0
 20 21  2  0
 21 22  1  0
 22 23  1  0
 23 24  1  0
 24 25  1  0
 23 26  2  0
 26 27  1  0
 27 28  1  0
 27 29  1  0
 29 30  1  0
 30 31  2  0
 30 32  1  0
 19  4  1  0
 32 20  1  0
 17  8  1  0
 29 22  2  0
M  END
>  <molecule_chembl_id>  (327) 
CHEMBL3984639

>  <canonical_smiles>  (327) 
CCOc1ccc(-c2ccc(C(=O)NO)cn2)cc1-c1nc2c(CC)nn(C)c2c(=O)[nH]1

>  <pchembl_value_mean>  (327) 
5.73

>  <document_chembl_id>  (327) 
CHEMBL3860059

$$$$

     RDKit          2D

 30 33  0  0  0  0  0  0  0  0999 V2000
    6.0000   -0.0000    0.0000 C   0  0  0  0  0  0  0  0  0  0  0  0
    5.2500   -1.2990    0.0000 C   0  0  0  0  0  0  0  0  0  0  0  0
    3.7500   -1.2990    0.0000 O   0  0  0  0  0  0  0  0  0  0  0  0
    3.0000   -2.5981    0.0000 C   0  0  0  0  0  0  0  0  0  0  0  0
    3.7500   -3.8971    0.0000 C   0  0  0  0  0  0  0  0  0  0  0  0
    3.0000   -5.1962    0.0000 C   0  0  0  0  0  0  0  0  0  0  0  0
    1.5000   -5.1962    0.0000 C   0  0  0  0  0  0  0  0  0  0  0  0
    0.7500   -6.4952    0.0000 C   0  0  0  0  0  0  0  0  0  0  0  0
   -0.6989   -6.8834    0.0000 C   0  0  0  0  0  0  0  0  0  0  0  0
   -0.3107   -8.3323    0.0000 C   0  0  0  0  0  0  0  0  0  0  0  0
   -1.0607   -9.6313    0.0000 C   0  0  0  0  0  0  0  0  0  0  0  0
   -0.3107  -10.9304    0.0000 O   0  0  0  0  0  0  0  0  0  0  0  0
   -2.5607   -9.6313    0.0000 N   0  0  0  0  0  0  0  0  0  0  0  0
   -3.3107  -10.9304    0.0000 O   0  0  0  0  0  0  0  0  0  0  0  0
    1.1382   -7.9441    0.0000 C   0  0  0  0  0  0  0  0  0  0  0  0
    0.7500   -3.8971    0.0000 C   0  0  0  0  0  0  0  0  0  0  0  0
    1.5000   -2.5981    0.0000 C   0  0  0  0  0  0  0  0  0  0  0  0
    0.7500   -1.2990    0.0000 C   0  0  0  0  0  0  0  0  0  0  0  0
    1.5000    0.0000    0.0000 N   0  0  0  0  0  0  0  0  0  0  0  0
    0.7500    1.2990    0.0000 C   0  0  0  0  0  0  0  0  0  0  0  0
    1.2135    2.7256    0.0000 C   0  0  0  0  0  0  0  0  0  0  0  0
    2.6401    3.1891    0.0000 C   0  0  0  0  0  0  0  0  0  0  0  0
    2.9520    4.6564    0.0000 C   0  0  0  0  0  0  0  0  0  0  0  0
    0.0000    3.6073    0.0000 N   0  0  0  0  0  0  0  0  0  0  0  0
   -1.2135    2.7256    0.0000 N   0  0  0  0  0  0  0  0  0  0  0  0
   -2.6401    3.1891    0.0000 C   0  0  0  0  0  0  0  0  0  0  0  0
   -0.7500    1.2990    0.0000 C   0  0  0  0  0  0  0  0  0  0  0  0
   -1.5000    0.0000    0.0000 C   0  0  0  0  0  0  0  0  0  0  0  0
   -3.0000    0.0000    0.0000 O   0  0  0  0  0  0  0  0  0  0  0  0
   -0.7500   -1.2990    0.0000 N   0  0  0  0  0  0  0  0  0  0  0  0
  1  2  1  0
  2  3  1  0
  3  4  1  0
  4  5  2  0
  5  6  1  0
  6  7  2  0
  7  8  1  0
  8  9  1  0
  9 10  1  0
 10 11  1  0
 11 12  2  0
 11 13  1  0
 13 14  1  0
 10 15  1  0
  7 16  1  0
 16 17  2  0
 17 18  1  0
 18 19  2  0
 19 20  1  0
 20 21  1  0
 21 22  1  0
 22 23  1  0
 21 24  2  0
 24 25  1  0
 25 26  1  0
 25 27  1  0
 27 28  1  0
 28 29  2  0
 28 30  1  0
 17  4  1  0
 30 18  1  0
 15  8  1  0
 27 20  2  0
M  END
>  <molecule_chembl_id>  (328) 
CHEMBL3901988

>  <canonical_smiles>  (328) 
CCOc1ccc(C2CC(C(=O)NO)C2)cc1-c1nc2c(CC)nn(C)c2c(=O)[nH]1

>  <pchembl_value_mean>  (328) 
5.73

>  <document_chembl_id>  (328) 
CHEMBL3860059

$$$$

     RDKit          2D

 29 32  0  0  0  0  0  0  0  0999 V2000
  -11.5115   -7.4375    0.0000 O   0  0  0  0  0  0  0  0  0  0  0  0
  -11.1996   -5.9703    0.0000 C   0  0  0  0  0  0  0  0  0  0  0  0
  -12.3143   -4.9666    0.0000 N   0  0  0  0  0  0  0  0  0  0  0  0
  -13.7409   -5.4301    0.0000 O   0  0  0  0  0  0  0  0  0  0  0  0
   -9.7730   -5.5068    0.0000 C   0  0  0  0  0  0  0  0  0  0  0  0
   -9.4612   -4.0396    0.0000 C   0  0  0  0  0  0  0  0  0  0  0  0
   -8.0346   -3.5760    0.0000 C   0  0  0  0  0  0  0  0  0  0  0  0
   -6.9199   -4.5797    0.0000 C   0  0  0  0  0  0  0  0  0  0  0  0
   -5.4933   -4.1162    0.0000 C   0  0  0  0  0  0  0  0  0  0  0  0
   -4.3786   -5.1199    0.0000 N   0  0  0  0  0  0  0  0  0  0  0  0
   -4.6904   -6.5871    0.0000 C   0  0  0  0  0  0  0  0  0  0  0  0
   -6.1170   -7.0506    0.0000 O   0  0  0  0  0  0  0  0  0  0  0  0
   -3.5757   -7.5908    0.0000 C   0  0  0  0  0  0  0  0  0  0  0  0
   -2.1491   -7.1273    0.0000 N   0  0  0  0  0  0  0  0  0  0  0  0
   -1.8373   -5.6601    0.0000 C   0  0  0  0  0  0  0  0  0  0  0  0
   -0.4107   -5.1965    0.0000 O   0  0  0  0  0  0  0  0  0  0  0  0
   -2.9520   -4.6564    0.0000 C   0  0  0  0  0  0  0  0  0  0  0  0
   -2.6401   -3.1891    0.0000 C   0  0  0  0  0  0  0  0  0  0  0  0
   -1.2135   -2.7256    0.0000 C   0  0  0  0  0  0  0  0  0  0  0  0
   -0.0000   -3.6073    0.0000 C   0  0  0  0  0  0  0  0  0  0  0  0
    1.2135   -2.7256    0.0000 N   0  0  0  0  0  0  0  0  0  0  0  0
    0.7500   -1.2990    0.0000 C   0  0  0  0  0  0  0  0  0  0  0  0
    1.5000    0.0000    0.0000 C   0  0  0  0  0  0  0  0  0  0  0  0
    0.7500    1.2990    0.0000 C   0  0  0  0  0  0  0  0  0  0  0  0
   -0.7500    1.2990    0.0000 C   0  0  0  0  0  0  0  0  0  0  0  0
   -1.5000    0.0000    0.0000 C   0  0  0  0  0  0  0  0  0  0  0  0
   -0.7500   -1.2990    0.0000 C   0  0  0  0  0  0  0  0  0  0  0  0
   -7.2317   -6.0469    0.0000 C   0  0  0  0  0  0  0  0  0  0  0  0
   -8.6583   -6.5105    0.0000 C   0  0  0  0  0  0  0  0  0  0  0  0
  1  2  2  0
  2  3  1  0
  3  4  1  0
  2  5  1  0
  5  6  2  0
  6  7  1  0
  7  8  2  0
  8  9  1  0
  9 10  1  0
 10 11  1  0
 11 12  2  0
 11 13  1  0
 13 14  1  0
 14 15  1  0
 15 16  2  0
 15 17  1  0
 17 18  1  0
 18 19  1  0
 19 20  2  0
 20 21  1  0
 21 22  1  0
 22 23  2  0
 23 24  1  0
 24 25  2  0
 25 26  1  0
 26 27  2  0
  8 28  1  0
 28 29  2  0
 29  5  1  0
 17 10  1  0
 27 19  1  0
 27 22  1  0
M  END
>  <molecule_chembl_id>  (329) 
CHEMBL481719

>  <canonical_smiles>  (329) 
O=C(NO)c1ccc(CN2C(=O)CNC(=O)C2Cc2c[nH]c3ccccc23)cc1

>  <pchembl_value_mean>  (329) 
5.74

>  <document_chembl_id>  (329) 
CHEMBL1143301

$$$$

     RDKit          2D

 25 27  0  0  0  0  0  0  0  0999 V2000
    2.0490   -4.6471    0.0000 C   0  0  0  0  0  0  0  0  0  0  0  0
    0.7500   -3.8971    0.0000 C   0  0  0  0  0  0  0  0  0  0  0  0
    1.5000   -2.5981    0.0000 N   0  0  0  0  0  0  0  0  0  0  0  0
    3.0000   -2.5981    0.0000 C   0  0  0  0  0  0  0  0  0  0  0  0
    3.7500   -1.2990    0.0000 N   0  0  0  0  0  0  0  0  0  0  0  0
    5.2500   -1.2990    0.0000 C   0  0  0  0  0  0  0  0  0  0  0  0
    6.0000   -2.5981    0.0000 C   0  0  0  0  0  0  0  0  0  0  0  0
    7.5000   -2.5981    0.0000 C   0  0  0  0  0  0  0  0  0  0  0  0
    8.2500   -3.8971    0.0000 O   0  0  0  0  0  0  0  0  0  0  0  0
    8.2500   -1.2990    0.0000 N   0  0  0  0  0  0  0  0  0  0  0  0
    9.7500   -1.2990    0.0000 O   0  0  0  0  0  0  0  0  0  0  0  0
    5.2500   -3.8971    0.0000 C   0  0  0  0  0  0  0  0  0  0  0  0
    3.7500   -3.8971    0.0000 N   0  0  0  0  0  0  0  0  0  0  0  0
   -0.5490   -3.1471    0.0000 C   0  0  0  0  0  0  0  0  0  0  0  0
   -1.8481   -3.8971    0.0000 C   0  0  0  0  0  0  0  0  0  0  0  0
   -3.1471   -3.1471    0.0000 C   0  0  0  0  0  0  0  0  0  0  0  0
   -3.1471   -1.6471    0.0000 C   0  0  0  0  0  0  0  0  0  0  0  0
   -1.8481   -0.8971    0.0000 C   0  0  0  0  0  0  0  0  0  0  0  0
   -0.5490   -1.6471    0.0000 C   0  0  0  0  0  0  0  0  0  0  0  0
   -0.0000   -5.1962    0.0000 C   0  0  0  0  0  0  0  0  0  0  0  0
   -1.5000   -5.1962    0.0000 C   0  0  0  0  0  0  0  0  0  0  0  0
   -2.2500   -6.4952    0.0000 C   0  0  0  0  0  0  0  0  0  0  0  0
   -1.5000   -7.7942    0.0000 C   0  0  0  0  0  0  0  0  0  0  0  0
   -0.0000   -7.7942    0.0000 C   0  0  0  0  0  0  0  0  0  0  0  0
    0.7500   -6.4952    0.0000 C   0  0  0  0  0  0  0  0  0  0  0  0
  1  2  1  0
  2  3  1  0
  3  4  1  0
  4  5  2  0
  5  6  1  0
  6  7  2  0
  7  8  1  0
  8  9  2  0
  8 10  1  0
 10 11  1  0
  7 12  1  0
 12 13  2  0
  2 14  1  0
 14 15  2  0
 15 16  1  0
 16 17  2  0
 17 18  1  0
 18 19  2  0
  2 20  1  0
 20 21  2  0
 21 22  1  0
 22 23  2  0
 23 24  1  0
 24 25  2  0
 13  4  1  0
 19 14  1  0
 25 20  1  0
M  END
>  <molecule_chembl_id>  (330) 
CHEMBL3655956

>  <canonical_smiles>  (330) 
CC(Nc1ncc(C(=O)NO)cn1)(c1ccccc1)c1ccccc1

>  <pchembl_value_mean>  (330) 
5.74

>  <document_chembl_id>  (330) 
CHEMBL3639071

$$$$

     RDKit          2D

 32 35  0  0  0  0  0  0  0  0999 V2000
    3.7500    1.2990    0.0000 O   0  0  0  0  0  0  0  0  0  0  0  0
    3.0000    0.0000    0.0000 C   0  0  0  0  0  0  0  0  0  0  0  0
    3.7500   -1.2990    0.0000 N   0  0  0  0  0  0  0  0  0  0  0  0
    5.2500   -1.2990    0.0000 O   0  0  0  0  0  0  0  0  0  0  0  0
    1.5000    0.0000    0.0000 C   0  0  0  0  0  0  0  0  0  0  0  0
    0.7500   -1.2990    0.0000 C   0  0  0  0  0  0  0  0  0  0  0  0
   -0.7500   -1.2990    0.0000 C   0  0  0  0  0  0  0  0  0  0  0  0
   -1.5000    0.0000    0.0000 C   0  0  0  0  0  0  0  0  0  0  0  0
   -3.0000    0.0000    0.0000 C   0  0  0  0  0  0  0  0  0  0  0  0
   -3.7500    1.2990    0.0000 N   0  0  0  0  0  0  0  0  0  0  0  0
   -5.2500    1.2990    0.0000 C   0  0  0  0  0  0  0  0  0  0  0  0
   -6.0000    0.0000    0.0000 O   0  0  0  0  0  0  0  0  0  0  0  0
   -6.0000    2.5981    0.0000 C   0  0  0  0  0  0  0  0  0  0  0  0
   -7.4918    2.7549    0.0000 N   0  0  0  0  0  0  0  0  0  0  0  0
   -7.8037    4.2221    0.0000 C   0  0  0  0  0  0  0  0  0  0  0  0
   -9.1740    4.8322    0.0000 C   0  0  0  0  0  0  0  0  0  0  0  0
   -9.3308    6.3240    0.0000 C   0  0  0  0  0  0  0  0  0  0  0  0
  -10.7011    6.9341    0.0000 C   0  0  0  0  0  0  0  0  0  0  0  0
  -11.9146    6.0524    0.0000 C   0  0  0  0  0  0  0  0  0  0  0  0
  -11.7578    4.5606    0.0000 N   0  0  0  0  0  0  0  0  0  0  0  0
  -10.3875    3.9505    0.0000 C   0  0  0  0  0  0  0  0  0  0  0  0
   -6.5046    4.9721    0.0000 C   0  0  0  0  0  0  0  0  0  0  0  0
   -5.3899    3.9684    0.0000 C   0  0  0  0  0  0  0  0  0  0  0  0
   -3.9227    4.2803    0.0000 C   0  0  0  0  0  0  0  0  0  0  0  0
   -2.9190    3.1655    0.0000 C   0  0  0  0  0  0  0  0  0  0  0  0
   -1.4518    3.4774    0.0000 C   0  0  0  0  0  0  0  0  0  0  0  0
   -0.9882    4.9040    0.0000 C   0  0  0  0  0  0  0  0  0  0  0  0
    0.4790    5.2159    0.0000 F   0  0  0  0  0  0  0  0  0  0  0  0
   -1.9919    6.0187    0.0000 C   0  0  0  0  0  0  0  0  0  0  0  0
   -3.4591    5.7068    0.0000 C   0  0  0  0  0  0  0  0  0  0  0  0
   -0.7500    1.2990    0.0000 C   0  0  0  0  0  0  0  0  0  0  0  0
    0.7500    1.2990    0.0000 C   0  0  0  0  0  0  0  0  0  0  0  0
  1  2  2  0
  2  3  1  0
  3  4  1  0
  2  5  1  0
  5  6  2  0
  6  7  1  0
  7  8  2  0
  8  9  1  0
  9 10  1  0
 10 11  1  0
 11 12  2  0
 11 13  1  0
 13 14  1  0
 14 15  1  0
 15 16  1  0
 16 17  2  0
 17 18  1  0
 18 19  2  0
 19 20  1  0
 20 21  2  0
 15 22  2  0
 22 23  1  0
 23 24  1  0
 24 25  2  0
 25 26  1  0
 26 27  2  0
 27 28  1  0
 27 29  1  0
 29 30  2  0
  8 31  1  0
 31 32  2  0
 32  5  1  0
 23 13  2  0
 30 24  1  0
 21 16  1  0
M  END
>  <molecule_chembl_id>  (331) 
CHEMBL3670680

>  <canonical_smiles>  (331) 
O=C(NO)c1ccc(CNC(=O)c2[nH]c(-c3cccnc3)cc2-c2ccc(F)cc2)cc1

>  <pchembl_value_mean>  (331) 
5.74

>  <document_chembl_id>  (331) 
CHEMBL3638813

$$$$

     RDKit          2D

 22 23  0  0  0  0  0  0  0  0999 V2000
    6.6715  -11.4094    0.0000 O   0  0  0  0  0  0  0  0  0  0  0  0
    7.8850  -10.5278    0.0000 C   0  0  0  0  0  0  0  0  0  0  0  0
    7.7282   -9.0360    0.0000 C   0  0  0  0  0  0  0  0  0  0  0  0
    6.3579   -8.4259    0.0000 C   0  0  0  0  0  0  0  0  0  0  0  0
    6.2011   -6.9341    0.0000 C   0  0  0  0  0  0  0  0  0  0  0  0
    4.8308   -6.3240    0.0000 N   0  0  0  0  0  0  0  0  0  0  0  0
    4.6740   -4.8322    0.0000 C   0  0  0  0  0  0  0  0  0  0  0  0
    5.8875   -3.9505    0.0000 O   0  0  0  0  0  0  0  0  0  0  0  0
    3.3037   -4.2221    0.0000 C   0  0  0  0  0  0  0  0  0  0  0  0
    2.9918   -2.7549    0.0000 C   0  0  0  0  0  0  0  0  0  0  0  0
    1.5000   -2.5981    0.0000 C   0  0  0  0  0  0  0  0  0  0  0  0
    0.7500   -1.2990    0.0000 C   0  0  0  0  0  0  0  0  0  0  0  0
    1.5000    0.0000    0.0000 C   0  0  0  0  0  0  0  0  0  0  0  0
    0.7500    1.2990    0.0000 C   0  0  0  0  0  0  0  0  0  0  0  0
   -0.7500    1.2990    0.0000 C   0  0  0  0  0  0  0  0  0  0  0  0
   -1.5000    2.5981    0.0000 F   0  0  0  0  0  0  0  0  0  0  0  0
   -1.5000    0.0000    0.0000 C   0  0  0  0  0  0  0  0  0  0  0  0
   -0.7500   -1.2990    0.0000 C   0  0  0  0  0  0  0  0  0  0  0  0
    0.8899   -3.9684    0.0000 N   0  0  0  0  0  0  0  0  0  0  0  0
    2.0046   -4.9721    0.0000 N   0  0  0  0  0  0  0  0  0  0  0  0
    9.2553  -11.1379    0.0000 N   0  0  0  0  0  0  0  0  0  0  0  0
    9.4121  -12.6296    0.0000 O   0  0  0  0  0  0  0  0  0  0  0  0
  1  2  2  0
  2  3  1  0
  3  4  1  0
  4  5  1  0
  5  6  1  0
  6  7  1  0
  7  8  2  0
  7  9  1  0
  9 10  1  0
 10 11  2  0
 11 12  1  0
 12 13  2  0
 13 14  1  0
 14 15  2  0
 15 16  1  0
 15 17  1  0
 17 18  2  0
 11 19  1  0
 19 20  1  0
  2 21  1  0
 21 22  1  0
 20  9  2  0
 18 12  1  0
M  END
>  <molecule_chembl_id>  (332) 
CHEMBL4226175

>  <canonical_smiles>  (332) 
O=C(CCCNC(=O)c1cc(-c2ccc(F)cc2)[nH]n1)NO

>  <pchembl_value_mean>  (332) 
5.74

>  <document_chembl_id>  (332) 
CHEMBL4219109

$$$$

     RDKit          2D

 42 44  0  0  0  0  0  0  0  0999 V2000
   22.7824    8.0713    0.0000 C   0  0  0  0  0  0  0  0  0  0  0  0
   21.7217    7.0106    0.0000 C   0  0  0  0  0  0  0  0  0  0  0  0
   20.2728    7.3989    0.0000 C   0  0  0  0  0  0  0  0  0  0  0  0
   19.2122    6.3382    0.0000 C   0  0  0  0  0  0  0  0  0  0  0  0
   17.7633    6.7264    0.0000 C   0  0  0  0  0  0  0  0  0  0  0  0
   16.7026    5.6658    0.0000 C   0  0  0  0  0  0  0  0  0  0  0  0
   15.2537    6.0540    0.0000 C   0  0  0  0  0  0  0  0  0  0  0  0
   14.1931    4.9933    0.0000 C   0  0  0  0  0  0  0  0  0  0  0  0
   14.5813    3.5444    0.0000 O   0  0  0  0  0  0  0  0  0  0  0  0
   12.7442    5.3816    0.0000 S   0  0  0  0  0  0  0  0  0  0  0  0
   11.6835    4.3209    0.0000 C   0  0  0  0  0  0  0  0  0  0  0  0
   10.2346    4.7091    0.0000 C   0  0  0  0  0  0  0  0  0  0  0  0
    9.1740    3.6485    0.0000 C   0  0  0  0  0  0  0  0  0  0  0  0
    7.7251    4.0367    0.0000 C   0  0  0  0  0  0  0  0  0  0  0  0
    7.3368    5.4856    0.0000 F   0  0  0  0  0  0  0  0  0  0  0  0
    6.6644    2.9760    0.0000 C   0  0  0  0  0  0  0  0  0  0  0  0
    5.4172    3.8094    0.0000 C   0  0  0  0  0  0  0  0  0  0  0  0
    3.9460    4.1020    0.0000 C   0  0  0  0  0  0  0  0  0  0  0  0
    3.9460    5.6020    0.0000 O   0  0  0  0  0  0  0  0  0  0  0  0
    2.4749    3.8094    0.0000 N   0  0  0  0  0  0  0  0  0  0  0  0
    1.2277    2.9760    0.0000 C   0  0  0  0  0  0  0  0  0  0  0  0
    0.3943    1.2135    0.0000 C   0  0  0  0  0  0  0  0  0  0  0  0
    1.2760    0.0000    0.0000 N   0  0  0  0  0  0  0  0  0  0  0  0
    0.3943   -1.2135    0.0000 C   0  0  0  0  0  0  0  0  0  0  0  0
   -1.0323   -0.7500    0.0000 C   0  0  0  0  0  0  0  0  0  0  0  0
   -1.0323    0.7500    0.0000 S   0  0  0  0  0  0  0  0  0  0  0  0
    1.2277   -2.4607    0.0000 C   0  0  0  0  0  0  0  0  0  0  0  0
    2.4749   -3.2941    0.0000 N   0  0  0  0  0  0  0  0  0  0  0  0
    3.9460   -3.5867    0.0000 C   0  0  0  0  0  0  0  0  0  0  0  0
    3.9460   -5.0867    0.0000 C   0  0  0  0  0  0  0  0  0  0  0  0
    2.9719   -4.7273    0.0000 C   0  0  0  0  0  0  0  0  0  0  0  0
    1.5860   -4.1533    0.0000 S   0  0  0  0  0  0  0  0  0  0  0  0
    5.4172   -3.2941    0.0000 C   0  0  0  0  0  0  0  0  0  0  0  0
    5.9912   -4.6799    0.0000 O   0  0  0  0  0  0  0  0  0  0  0  0
    6.6644   -2.4607    0.0000 N   0  0  0  0  0  0  0  0  0  0  0  0
    7.4978   -1.2135    0.0000 C   0  0  0  0  0  0  0  0  0  0  0  0
    8.8836   -1.7876    0.0000 C   0  0  0  0  0  0  0  0  0  0  0  0
    9.0794   -3.2747    0.0000 C   0  0  0  0  0  0  0  0  0  0  0  0
   10.0736   -0.8744    0.0000 C   0  0  0  0  0  0  0  0  0  0  0  0
    7.7904    0.2577    0.0000 C   0  0  0  0  0  0  0  0  0  0  0  0
    9.2904    0.2577    0.0000 O   0  0  0  0  0  0  0  0  0  0  0  0
    7.4978    1.7288    0.0000 O   0  0  0  0  0  0  0  0  0  0  0  0
  1  2  1  0
  2  3  1  0
  3  4  1  0
  4  5  1  0
  5  6  1  0
  6  7  1  0
  7  8  1  0
  8  9  2  0
  8 10  1  0
 10 11  1  0
 11 12  1  0
 12 13  1  0
 13 14  2  3
 14 15  1  0
 14 16  1  0
 16 17  1  0
 17 18  1  0
 18 19  2  0
 18 20  1  0
 20 21  1  0
 21 22  1  0
 22 23  2  0
 23 24  1  0
 24 25  2  0
 25 26  1  0
 24 27  1  0
 27 28  2  0
 28 29  1  0
 29 30  1  0
 29 31  1  0
 31 32  1  0
 29 33  1  0
 33 34  2  0
 33 35  1  0
 35 36  1  0
 36 37  1  0
 37 38  1  0
 37 39  1  0
 36 40  1  0
 40 41  2  0
 40 42  1  0
 42 16  1  0
 26 22  1  0
 32 27  1  0
M  END
>  <molecule_chembl_id>  (333) 
CHEMBL4524784

>  <canonical_smiles>  (333) 
CCCCCCCC(=O)SCCC=C(F)C1CC(=O)NCc2nc(cs2)C2=NC(C)(CS2)C(=O)NC(C(C)C)C(=O)O1

>  <pchembl_value_mean>  (333) 
5.74

>  <document_chembl_id>  (333) 
CHEMBL4359920

$$$$

     RDKit          2D

 40 43  0  0  0  0  0  0  0  0999 V2000
    5.2500   -3.8971    0.0000 C   0  0  0  0  0  0  0  0  0  0  0  0
    3.7500   -3.8971    0.0000 C   0  0  0  0  0  0  0  0  0  0  0  0
    3.0000   -2.5981    0.0000 O   0  0  0  0  0  0  0  0  0  0  0  0
    1.5000   -2.5981    0.0000 C   0  0  0  0  0  0  0  0  0  0  0  0
    0.7500   -3.8971    0.0000 C   0  0  0  0  0  0  0  0  0  0  0  0
   -0.7500   -3.8971    0.0000 C   0  0  0  0  0  0  0  0  0  0  0  0
   -1.5000   -5.1962    0.0000 N   0  0  0  0  0  0  0  0  0  0  0  0
   -3.0000   -5.1962    0.0000 C   0  0  0  0  0  0  0  0  0  0  0  0
   -3.7500   -3.8971    0.0000 O   0  0  0  0  0  0  0  0  0  0  0  0
   -3.7500   -6.4952    0.0000 C   0  0  0  0  0  0  0  0  0  0  0  0
   -5.2500   -6.4952    0.0000 C   0  0  0  0  0  0  0  0  0  0  0  0
   -6.0000   -7.7942    0.0000 C   0  0  0  0  0  0  0  0  0  0  0  0
   -7.5000   -7.7942    0.0000 C   0  0  0  0  0  0  0  0  0  0  0  0
   -8.2500   -9.0933    0.0000 C   0  0  0  0  0  0  0  0  0  0  0  0
   -9.7500   -9.0933    0.0000 C   0  0  0  0  0  0  0  0  0  0  0  0
  -10.5000   -7.7942    0.0000 O   0  0  0  0  0  0  0  0  0  0  0  0
  -10.5000  -10.3923    0.0000 N   0  0  0  0  0  0  0  0  0  0  0  0
  -12.0000  -10.3923    0.0000 C   0  0  0  0  0  0  0  0  0  0  0  0
  -12.7500   -9.0933    0.0000 C   0  0  0  0  0  0  0  0  0  0  0  0
  -14.2500   -9.0933    0.0000 C   0  0  0  0  0  0  0  0  0  0  0  0
  -15.0000   -7.7942    0.0000 C   0  0  0  0  0  0  0  0  0  0  0  0
  -16.4918   -7.6374    0.0000 C   0  0  0  0  0  0  0  0  0  0  0  0
  -16.8037   -6.1702    0.0000 C   0  0  0  0  0  0  0  0  0  0  0  0
  -15.5046   -5.4202    0.0000 C   0  0  0  0  0  0  0  0  0  0  0  0
  -15.3478   -3.9284    0.0000 C   0  0  0  0  0  0  0  0  0  0  0  0
  -14.3899   -6.4239    0.0000 S   0  0  0  0  0  0  0  0  0  0  0  0
  -15.0000  -10.3923    0.0000 C   0  0  0  0  0  0  0  0  0  0  0  0
  -14.2500  -11.6913    0.0000 C   0  0  0  0  0  0  0  0  0  0  0  0
  -12.7500  -11.6913    0.0000 C   0  0  0  0  0  0  0  0  0  0  0  0
  -12.0000  -12.9904    0.0000 N   0  0  0  0  0  0  0  0  0  0  0  0
   -1.5000   -2.5981    0.0000 C   0  0  0  0  0  0  0  0  0  0  0  0
   -0.7500   -1.2990    0.0000 C   0  0  0  0  0  0  0  0  0  0  0  0
    0.7500   -1.2990    0.0000 C   0  0  0  0  0  0  0  0  0  0  0  0
    1.5000    0.0000    0.0000 O   0  0  0  0  0  0  0  0  0  0  0  0
    0.7500    1.2990    0.0000 C   0  0  0  0  0  0  0  0  0  0  0  0
   -0.7500    1.2990    0.0000 C   0  0  0  0  0  0  0  0  0  0  0  0
   -1.5000    2.5981    0.0000 N   0  0  0  0  0  4  0  0  0  0  0  0
   -3.0000    2.5981    0.0000 O   0  0  0  0  0  0  0  0  0  0  0  0
   -0.7500    3.8971    0.0000 O   0  0  0  0  0  1  0  0  0  0  0  0
   -1.5000    0.0000    0.0000 C   0  0  0  0  0  0  0  0  0  0  0  0
  1  2  1  0
  2  3  1  0
  3  4  1  0
  4  5  2  0
  5  6  1  0
  6  7  1  0
  7  8  1  0
  8  9  2  0
  8 10  1  0
 10 11  1  0
 11 12  1  0
 12 13  1  0
 13 14  1  0
 14 15  1  0
 15 16  2  0
 15 17  1  0
 17 18  1  0
 18 19  2  0
 19 20  1  0
 20 21  1  0
 21 22  2  0
 22 23  1  0
 23 24  2  0
 24 25  1  0
 24 26  1  0
 20 27  2  0
 27 28  1  0
 28 29  2  0
 29 30  1  0
  6 31  2  0
 31 32  1  0
 32 33  2  0
 33 34  1  0
 34 35  1  0
 35 36  1  0
 36 37  1  0
 37 38  2  0
 37 39  1  0
 36 40  2  0
 33  4  1  0
 29 18  1  0
 40 32  1  0
 26 21  1  0
M  CHG  2  37   1  39  -1
M  END
>  <molecule_chembl_id>  (334) 
CHEMBL4072341

>  <canonical_smiles>  (334) 
CCOc1cc(NC(=O)CCCCCC(=O)Nc2cc(-c3ccc(C)s3)ccc2N)cc2c1OCC([N+](=O)[O-])=C2

>  <pchembl_value_mean>  (334) 
5.75

>  <document_chembl_id>  (334) 
CHEMBL4052685

$$$$

     RDKit          2D

 38 41  0  0  0  0  0  0  0  0999 V2000
   -3.7500   -3.8971    0.0000 C   0  0  0  0  0  0  0  0  0  0  0  0
   -3.0000   -5.1962    0.0000 O   0  0  0  0  0  0  0  0  0  0  0  0
   -1.5000   -5.1962    0.0000 C   0  0  0  0  0  0  0  0  0  0  0  0
   -0.7500   -3.8971    0.0000 C   0  0  0  0  0  0  0  0  0  0  0  0
    0.7500   -3.8971    0.0000 C   0  0  0  0  0  0  0  0  0  0  0  0
    1.5000   -2.5981    0.0000 C   0  0  0  0  0  0  0  0  0  0  0  0
    3.0000   -2.5981    0.0000 O   0  0  0  0  0  0  0  0  0  0  0  0
    0.7500   -1.2990    0.0000 C   0  0  0  0  0  0  0  0  0  0  0  0
    1.5000    0.0000    0.0000 C   0  0  0  0  0  0  0  0  0  0  0  0
    0.7500    1.2990    0.0000 C   0  0  0  0  0  0  0  0  0  0  0  0
   -0.7500    1.2990    0.0000 C   0  0  0  0  0  0  0  0  0  0  0  0
   -1.5000    0.0000    0.0000 C   0  0  0  0  0  0  0  0  0  0  0  0
   -2.9672    0.3119    0.0000 C   0  0  0  0  0  0  0  0  0  0  0  0
   -3.1240    1.8037    0.0000 C   0  0  0  0  0  0  0  0  0  0  0  0
   -1.7537    2.4138    0.0000 N   0  0  0  0  0  0  0  0  0  0  0  0
   -1.4418    3.8810    0.0000 S   0  0  0  0  0  0  0  0  0  0  0  0
    0.0254    3.5691    0.0000 O   0  0  0  0  0  0  0  0  0  0  0  0
   -2.9090    4.1928    0.0000 O   0  0  0  0  0  0  0  0  0  0  0  0
   -1.1300    5.3482    0.0000 C   0  0  0  0  0  0  0  0  0  0  0  0
    0.2966    5.8117    0.0000 C   0  0  0  0  0  0  0  0  0  0  0  0
    0.6085    7.2789    0.0000 C   0  0  0  0  0  0  0  0  0  0  0  0
   -0.5062    8.2826    0.0000 C   0  0  0  0  0  0  0  0  0  0  0  0
   -1.9328    7.8191    0.0000 C   0  0  0  0  0  0  0  0  0  0  0  0
   -3.0475    8.8228    0.0000 C   0  0  0  0  0  0  0  0  0  0  0  0
   -2.7357   10.2900    0.0000 C   0  0  0  0  0  0  0  0  0  0  0  0
   -3.8504   11.2937    0.0000 C   0  0  0  0  0  0  0  0  0  0  0  0
   -5.2770   10.8302    0.0000 O   0  0  0  0  0  0  0  0  0  0  0  0
   -3.5385   12.7610    0.0000 N   0  0  0  0  0  0  0  0  0  0  0  0
   -4.6532   13.7646    0.0000 O   0  0  0  0  0  0  0  0  0  0  0  0
   -2.2447    6.3519    0.0000 C   0  0  0  0  0  0  0  0  0  0  0  0
   -0.7500   -1.2990    0.0000 C   0  0  0  0  0  0  0  0  0  0  0  0
    1.5000   -5.1962    0.0000 C   0  0  0  0  0  0  0  0  0  0  0  0
    0.7500   -6.4952    0.0000 C   0  0  0  0  0  0  0  0  0  0  0  0
    1.5000   -7.7942    0.0000 O   0  0  0  0  0  0  0  0  0  0  0  0
    0.7500   -9.0933    0.0000 C   0  0  0  0  0  0  0  0  0  0  0  0
   -0.7500   -6.4952    0.0000 C   0  0  0  0  0  0  0  0  0  0  0  0
   -1.5000   -7.7942    0.0000 O   0  0  0  0  0  0  0  0  0  0  0  0
   -3.0000   -7.7942    0.0000 C   0  0  0  0  0  0  0  0  0  0  0  0
  1  2  1  0
  2  3  1  0
  3  4  2  0
  4  5  1  0
  5  6  1  0
  6  7  2  0
  6  8  1  0
  8  9  2  0
  9 10  1  0
 10 11  2  0
 11 12  1  0
 12 13  1  0
 13 14  2  0
 14 15  1  0
 15 16  1  0
 16 17  2  0
 16 18  2  0
 16 19  1  0
 19 20  2  0
 20 21  1  0
 21 22  2  0
 22 23  1  0
 23 24  1  0
 24 25  2  3
 25 26  1  0
 26 27  2  0
 26 28  1  0
 28 29  1  0
 23 30  2  0
 12 31  2  0
  5 32  2  0
 32 33  1  0
 33 34  1  0
 34 35  1  0
 33 36  2  0
 36 37  1  0
 37 38  1  0
 36  3  1  0
 31  8  1  0
 15 11  1  0
 30 19  1  0
M  END
>  <molecule_chembl_id>  (335) 
CHEMBL4218915

>  <canonical_smiles>  (335) 
COc1cc(C(=O)c2ccc3c(ccn3S(=O)(=O)c3cccc(C=CC(=O)NO)c3)c2)cc(OC)c1OC

>  <pchembl_value_mean>  (335) 
5.75

>  <document_chembl_id>  (335) 
CHEMBL4196108

$$$$

     RDKit          2D

 33 36  0  0  0  0  0  0  0  0999 V2000
   -6.7407   -9.9851    0.0000 O   0  0  0  0  0  0  0  0  0  0  0  0
   -7.8555   -8.9814    0.0000 C   0  0  0  0  0  0  0  0  0  0  0  0
   -7.5436   -7.5142    0.0000 C   0  0  0  0  0  0  0  0  0  0  0  0
   -6.1170   -7.0506    0.0000 C   0  0  0  0  0  0  0  0  0  0  0  0
   -5.8051   -5.5834    0.0000 C   0  0  0  0  0  0  0  0  0  0  0  0
   -6.9199   -4.5797    0.0000 C   0  0  0  0  0  0  0  0  0  0  0  0
   -6.6080   -3.1125    0.0000 C   0  0  0  0  0  0  0  0  0  0  0  0
   -5.1814   -2.6490    0.0000 C   0  0  0  0  0  0  0  0  0  0  0  0
   -4.0667   -3.6527    0.0000 C   0  0  0  0  0  0  0  0  0  0  0  0
   -2.6401   -3.1891    0.0000 S   0  0  0  0  0  0  0  0  0  0  0  0
   -3.1036   -1.7626    0.0000 O   0  0  0  0  0  0  0  0  0  0  0  0
   -2.1766   -4.6157    0.0000 O   0  0  0  0  0  0  0  0  0  0  0  0
   -1.2135   -2.7256    0.0000 N   0  0  0  0  0  0  0  0  0  0  0  0
   -0.0000   -3.6073    0.0000 C   0  0  0  0  0  0  0  0  0  0  0  0
    1.2135   -2.7256    0.0000 C   0  0  0  0  0  0  0  0  0  0  0  0
    0.7500   -1.2990    0.0000 C   0  0  0  0  0  0  0  0  0  0  0  0
    1.5000    0.0000    0.0000 C   0  0  0  0  0  0  0  0  0  0  0  0
    0.7500    1.2990    0.0000 C   0  0  0  0  0  0  0  0  0  0  0  0
    1.5000    2.5981    0.0000 C   0  0  0  0  0  0  0  0  0  0  0  0
    0.7500    3.8971    0.0000 O   0  0  0  0  0  0  0  0  0  0  0  0
    3.0000    2.5981    0.0000 C   0  0  0  0  0  0  0  0  0  0  0  0
    3.7500    1.2990    0.0000 C   0  0  0  0  0  0  0  0  0  0  0  0
    5.2500    1.2990    0.0000 C   0  0  0  0  0  0  0  0  0  0  0  0
    6.0000    2.5981    0.0000 C   0  0  0  0  0  0  0  0  0  0  0  0
    7.5000    2.5981    0.0000 F   0  0  0  0  0  0  0  0  0  0  0  0
    5.2500    3.8971    0.0000 C   0  0  0  0  0  0  0  0  0  0  0  0
    3.7500    3.8971    0.0000 C   0  0  0  0  0  0  0  0  0  0  0  0
   -0.7500    1.2990    0.0000 C   0  0  0  0  0  0  0  0  0  0  0  0
   -1.5000    0.0000    0.0000 C   0  0  0  0  0  0  0  0  0  0  0  0
   -0.7500   -1.2990    0.0000 C   0  0  0  0  0  0  0  0  0  0  0  0
   -4.3786   -5.1199    0.0000 C   0  0  0  0  0  0  0  0  0  0  0  0
   -9.2821   -9.4449    0.0000 N   0  0  0  0  0  0  0  0  0  0  0  0
   -9.5939  -10.9121    0.0000 O   0  0  0  0  0  0  0  0  0  0  0  0
  1  2  2  0
  2  3  1  0
  3  4  2  3
  4  5  1  0
  5  6  2  0
  6  7  1  0
  7  8  2  0
  8  9  1  0
  9 10  1  0
 10 11  2  0
 10 12  2  0
 10 13  1  0
 13 14  1  0
 14 15  2  0
 15 16  1  0
 16 17  2  0
 17 18  1  0
 18 19  1  0
 19 20  2  0
 19 21  1  0
 21 22  2  0
 22 23  1  0
 23 24  2  0
 24 25  1  0
 24 26  1  0
 26 27  2  0
 18 28  2  0
 28 29  1  0
 29 30  2  0
  9 31  2  0
  2 32  1  0
 32 33  1  0
 31  5  1  0
 30 13  1  0
 30 16  1  0
 27 21  1  0
M  END
>  <molecule_chembl_id>  (336) 
CHEMBL4218789

>  <canonical_smiles>  (336) 
O=C(C=Cc1cccc(S(=O)(=O)n2ccc3cc(C(=O)c4ccc(F)cc4)ccc32)c1)NO

>  <pchembl_value_mean>  (336) 
5.75

>  <document_chembl_id>  (336) 
CHEMBL4196108

$$$$

     RDKit          2D

 30 32  0  0  0  0  0  0  0  0999 V2000
    1.5000   -7.7942    0.0000 C   0  0  0  0  0  0  0  0  0  0  0  0
    0.7500   -6.4952    0.0000 C   0  0  0  0  0  0  0  0  0  0  0  0
   -0.7500   -6.4952    0.0000 C   0  0  0  0  0  0  0  0  0  0  0  0
    1.5000   -5.1962    0.0000 C   0  0  0  0  0  0  0  0  0  0  0  0
    0.7500   -3.8971    0.0000 C   0  0  0  0  0  0  0  0  0  0  0  0
   -0.7500   -3.8971    0.0000 O   0  0  0  0  0  0  0  0  0  0  0  0
    1.5000   -2.5981    0.0000 N   0  0  0  0  0  0  0  0  0  0  0  0
    0.7500   -1.2990    0.0000 C   0  0  0  0  0  0  0  0  0  0  0  0
    1.5000    0.0000    0.0000 C   0  0  0  0  0  0  0  0  0  0  0  0
    0.7500    1.2990    0.0000 C   0  0  0  0  0  0  0  0  0  0  0  0
   -0.7500    1.2990    0.0000 C   0  0  0  0  0  0  0  0  0  0  0  0
   -1.5000    2.5981    0.0000 C   0  0  0  0  0  0  0  0  0  0  0  0
   -3.0000    2.5981    0.0000 O   0  0  0  0  0  0  0  0  0  0  0  0
   -0.7500    3.8971    0.0000 N   0  0  0  0  0  0  0  0  0  0  0  0
   -1.5000    5.1962    0.0000 C   0  0  0  0  0  0  0  0  0  0  0  0
   -0.7500    6.4952    0.0000 C   0  0  0  0  0  0  0  0  0  0  0  0
   -1.5000    7.7942    0.0000 C   0  0  0  0  0  0  0  0  0  0  0  0
   -3.0000    7.7942    0.0000 C   0  0  0  0  0  0  0  0  0  0  0  0
   -3.7500    9.0933    0.0000 F   0  0  0  0  0  0  0  0  0  0  0  0
   -3.7500    6.4952    0.0000 C   0  0  0  0  0  0  0  0  0  0  0  0
   -3.0000    5.1962    0.0000 C   0  0  0  0  0  0  0  0  0  0  0  0
   -3.7500    3.8971    0.0000 N   0  0  0  0  0  0  0  0  0  0  0  0
   -1.5000    0.0000    0.0000 C   0  0  0  0  0  0  0  0  0  0  0  0
   -0.7500   -1.2990    0.0000 C   0  0  0  0  0  0  0  0  0  0  0  0
    3.0000   -5.1962    0.0000 C   0  0  0  0  0  0  0  0  0  0  0  0
    3.7500   -6.4952    0.0000 C   0  0  0  0  0  0  0  0  0  0  0  0
    5.2500   -6.4952    0.0000 C   0  0  0  0  0  0  0  0  0  0  0  0
    6.0000   -5.1962    0.0000 C   0  0  0  0  0  0  0  0  0  0  0  0
    5.2500   -3.8971    0.0000 C   0  0  0  0  0  0  0  0  0  0  0  0
    3.7500   -3.8971    0.0000 C   0  0  0  0  0  0  0  0  0  0  0  0
  1  2  1  0
  2  3  1  0
  2  4  1  0
  4  5  1  0
  5  6  2  0
  5  7  1  0
  7  8  1  0
  8  9  2  0
  9 10  1  0
 10 11  2  0
 11 12  1  0
 12 13  2  0
 12 14  1  0
 14 15  1  0
 15 16  2  0
 16 17  1  0
 17 18  2  0
 18 19  1  0
 18 20  1  0
 20 21  2  0
 21 22  1  0
 11 23  1  0
 23 24  2  0
  4 25  1  0
 25 26  2  0
 26 27  1  0
 27 28  2  0
 28 29  1  0
 29 30  2  0
 24  8  1  0
 30 25  1  0
 21 15  1  0
M  END
>  <molecule_chembl_id>  (337) 
CHEMBL4160579

>  <canonical_smiles>  (337) 
CC(C)C(C(=O)Nc1ccc(C(=O)Nc2ccc(F)cc2N)cc1)c1ccccc1

>  <pchembl_value_mean>  (337) 
5.75

>  <document_chembl_id>  (337) 
CHEMBL4130443

$$$$

     RDKit          2D

 21 22  0  0  0  0  0  0  0  0999 V2000
    3.7500    1.2990    0.0000 O   0  0  0  0  0  0  0  0  0  0  0  0
    3.0000    0.0000    0.0000 C   0  0  0  0  0  0  0  0  0  0  0  0
    3.7500   -1.2990    0.0000 N   0  0  0  0  0  0  0  0  0  0  0  0
    5.2500   -1.2990    0.0000 O   0  0  0  0  0  0  0  0  0  0  0  0
    1.5000    0.0000    0.0000 C   0  0  0  0  0  0  0  0  0  0  0  0
    0.7500   -1.2990    0.0000 C   0  0  0  0  0  0  0  0  0  0  0  0
   -0.7500   -1.2990    0.0000 N   0  0  0  0  0  0  0  0  0  0  0  0
   -1.5000    0.0000    0.0000 C   0  0  0  0  0  0  0  0  0  0  0  0
   -3.0000    0.0000    0.0000 N   0  0  0  0  0  0  0  0  0  0  0  0
   -3.7500    1.2990    0.0000 C   0  0  0  0  0  0  0  0  0  0  0  0
   -5.2500    1.2990    0.0000 C   0  0  0  0  0  0  0  0  0  0  0  0
   -6.0000    2.5981    0.0000 C   0  0  0  0  0  0  0  0  0  0  0  0
   -5.2500    3.8971    0.0000 C   0  0  0  0  0  0  0  0  0  0  0  0
   -3.7500    3.8971    0.0000 Cl  0  0  0  0  0  0  0  0  0  0  0  0
   -6.0000    5.1962    0.0000 C   0  0  0  0  0  0  0  0  0  0  0  0
   -7.5000    5.1962    0.0000 C   0  0  0  0  0  0  0  0  0  0  0  0
   -8.2500    3.8971    0.0000 C   0  0  0  0  0  0  0  0  0  0  0  0
   -7.5000    2.5981    0.0000 C   0  0  0  0  0  0  0  0  0  0  0  0
   -8.2500    1.2990    0.0000 Cl  0  0  0  0  0  0  0  0  0  0  0  0
   -0.7500    1.2990    0.0000 N   0  0  0  0  0  0  0  0  0  0  0  0
    0.7500    1.2990    0.0000 C   0  0  0  0  0  0  0  0  0  0  0  0
  1  2  2  0
  2  3  1  0
  3  4  1  0
  2  5  1  0
  5  6  2  0
  6  7  1  0
  7  8  2  0
  8  9  1  0
  9 10  1  0
 10 11  1  0
 11 12  1  0
 12 13  2  0
 13 14  1  0
 13 15  1  0
 15 16  2  0
 16 17  1  0
 17 18  2  0
 18 19  1  0
  8 20  1  0
 20 21  2  0
 21  5  1  0
 18 12  1  0
M  END
>  <molecule_chembl_id>  (338) 
CHEMBL3655945

>  <canonical_smiles>  (338) 
O=C(NO)c1cnc(NCCc2c(Cl)cccc2Cl)nc1

>  <pchembl_value_mean>  (338) 
5.75

>  <document_chembl_id>  (338) 
CHEMBL3639071

$$$$

     RDKit          2D

 31 32  0  0  0  0  0  0  0  0999 V2000
    3.0000    0.0000    0.0000 O   0  0  0  0  0  0  0  0  0  0  0  0
    1.5000    0.0000    0.0000 C   0  0  0  0  0  0  0  0  0  0  0  0
    0.7500   -1.2990    0.0000 C   0  0  0  0  0  0  0  0  0  0  0  0
   -0.7500   -1.2990    0.0000 C   0  0  0  0  0  0  0  0  0  0  0  0
   -1.5000    0.0000    0.0000 C   0  0  0  0  0  0  0  0  0  0  0  0
   -0.7500    1.2990    0.0000 C   0  0  0  0  0  0  0  0  0  0  0  0
   -1.5000    2.5981    0.0000 C   0  0  0  0  0  0  0  0  0  0  0  0
   -3.0000    2.5981    0.0000 O   0  0  0  0  0  0  0  0  0  0  0  0
   -0.7500    3.8971    0.0000 N   0  0  0  0  0  0  0  0  0  0  0  0
   -1.5000    5.1962    0.0000 C   0  0  0  0  0  0  0  0  0  0  0  0
   -0.7500    6.4952    0.0000 C   0  0  0  0  0  0  0  0  0  0  0  0
   -1.5000    7.7942    0.0000 C   0  0  0  0  0  0  0  0  0  0  0  0
   -0.7500    9.0933    0.0000 C   0  0  0  0  0  0  0  0  0  0  0  0
   -1.5000   10.3923    0.0000 C   0  0  0  0  0  0  0  0  0  0  0  0
   -0.7500   11.6913    0.0000 C   0  0  0  0  0  0  0  0  0  0  0  0
   -1.5000   12.9904    0.0000 S   0  0  0  0  0  0  0  0  0  0  0  0
   -3.0000    5.1962    0.0000 C   0  0  0  0  0  0  0  0  0  0  0  0
   -3.7500    3.8971    0.0000 O   0  0  0  0  0  0  0  0  0  0  0  0
   -3.7500    6.4952    0.0000 N   0  0  0  0  0  0  0  0  0  0  0  0
   -5.2500    6.4952    0.0000 C   0  0  0  0  0  0  0  0  0  0  0  0
   -6.0000    7.7942    0.0000 C   0  0  0  0  0  0  0  0  0  0  0  0
   -5.2500    9.0933    0.0000 C   0  0  0  0  0  0  0  0  0  0  0  0
   -6.0000   10.3923    0.0000 C   0  0  0  0  0  0  0  0  0  0  0  0
   -7.5000   10.3923    0.0000 C   0  0  0  0  0  0  0  0  0  0  0  0
   -8.2500   11.6913    0.0000 C   0  0  0  0  0  0  0  0  0  0  0  0
   -9.0000   12.9904    0.0000 F   0  0  0  0  0  0  0  0  0  0  0  0
   -6.9510   12.4413    0.0000 F   0  0  0  0  0  0  0  0  0  0  0  0
   -9.5490   10.9413    0.0000 F   0  0  0  0  0  0  0  0  0  0  0  0
   -8.2500    9.0933    0.0000 C   0  0  0  0  0  0  0  0  0  0  0  0
   -7.5000    7.7942    0.0000 C   0  0  0  0  0  0  0  0  0  0  0  0
    0.7500    1.2990    0.0000 N   0  0  0  0  0  0  0  0  0  0  0  0
  1  2  2  0
  2  3  1  0
  3  4  1  0
  4  5  1  0
  5  6  1  0
  6  7  1  0
  7  8  2  0
  7  9  1  0
  9 10  1  0
 10 11  1  0
 11 12  1  0
 12 13  1  0
 13 14  1  0
 14 15  1  0
 15 16  1  0
 10 17  1  0
 17 18  2  0
 17 19  1  0
 19 20  1  0
 20 21  1  0
 21 22  2  0
 22 23  1  0
 23 24  2  0
 24 25  1  0
 25 26  1  0
 25 27  1  0
 25 28  1  0
 24 29  1  0
 29 30  2  0
  6 31  1  0
 31  2  1  0
 30 21  1  0
M  END
>  <molecule_chembl_id>  (339) 
CHEMBL3356933

>  <canonical_smiles>  (339) 
O=C1CCCC(C(=O)NC(CCCCCS)C(=O)NCc2ccc(C(F)(F)F)cc2)N1

>  <pchembl_value_mean>  (339) 
5.75

>  <document_chembl_id>  (339) 
CHEMBL3352570

$$$$

     RDKit          2D

 28 31  0  0  0  0  0  0  0  0999 V2000
    3.7500   -3.8971    0.0000 N   0  0  0  0  0  0  0  0  0  0  0  0
    3.0000   -5.1962    0.0000 C   0  0  0  0  0  0  0  0  0  0  0  0
    3.7500   -6.4952    0.0000 C   0  0  0  0  0  0  0  0  0  0  0  0
    3.0000   -7.7942    0.0000 C   0  0  0  0  0  0  0  0  0  0  0  0
    3.7500   -9.0933    0.0000 F   0  0  0  0  0  0  0  0  0  0  0  0
    1.5000   -7.7942    0.0000 C   0  0  0  0  0  0  0  0  0  0  0  0
    0.7500   -6.4952    0.0000 C   0  0  0  0  0  0  0  0  0  0  0  0
    1.5000   -5.1962    0.0000 C   0  0  0  0  0  0  0  0  0  0  0  0
    0.7500   -3.8971    0.0000 N   0  0  0  0  0  0  0  0  0  0  0  0
    1.5000   -2.5981    0.0000 C   0  0  0  0  0  0  0  0  0  0  0  0
    3.0000   -2.5981    0.0000 O   0  0  0  0  0  0  0  0  0  0  0  0
    0.7500   -1.2990    0.0000 C   0  0  0  0  0  0  0  0  0  0  0  0
    1.5000    0.0000    0.0000 C   0  0  0  0  0  0  0  0  0  0  0  0
    0.7500    1.2990    0.0000 C   0  0  0  0  0  0  0  0  0  0  0  0
   -0.7500    1.2990    0.0000 C   0  0  0  0  0  0  0  0  0  0  0  0
   -1.5000    0.0000    0.0000 C   0  0  0  0  0  0  0  0  0  0  0  0
   -2.9672    0.3119    0.0000 C   0  0  0  0  0  0  0  0  0  0  0  0
   -3.1240    1.8037    0.0000 N   0  0  0  0  0  0  0  0  0  0  0  0
   -1.7537    2.4138    0.0000 N   0  0  0  0  0  0  0  0  0  0  0  0
   -1.4418    3.8810    0.0000 C   0  0  0  0  0  0  0  0  0  0  0  0
   -2.5565    4.8847    0.0000 C   0  0  0  0  0  0  0  0  0  0  0  0
   -2.2447    6.3519    0.0000 N   0  0  0  0  0  0  0  0  0  0  0  0
   -0.8181    6.8154    0.0000 C   0  0  0  0  0  0  0  0  0  0  0  0
   -0.5062    8.2826    0.0000 C   0  0  0  0  0  0  0  0  0  0  0  0
   -1.6209    9.2863    0.0000 O   0  0  0  0  0  0  0  0  0  0  0  0
   -3.0475    8.8228    0.0000 C   0  0  0  0  0  0  0  0  0  0  0  0
   -3.3594    7.3556    0.0000 C   0  0  0  0  0  0  0  0  0  0  0  0
   -0.7500   -1.2990    0.0000 C   0  0  0  0  0  0  0  0  0  0  0  0
  1  2  1  0
  2  3  2  0
  3  4  1  0
  4  5  1  0
  4  6  2  0
  6  7  1  0
  7  8  2  0
  8  9  1  0
  9 10  1  0
 10 11  2  0
 10 12  1  0
 12 13  2  0
 13 14  1  0
 14 15  2  0
 15 16  1  0
 16 17  1  0
 17 18  2  0
 18 19  1  0
 19 20  1  0
 20 21  1  0
 21 22  1  0
 22 23  1  0
 23 24  1  0
 24 25  1  0
 25 26  1  0
 26 27  1  0
 16 28  2  0
  8  2  1  0
 28 12  1  0
 19 15  1  0
 27 22  1  0
M  END
>  <molecule_chembl_id>  (340) 
CHEMBL3664028

>  <canonical_smiles>  (340) 
Nc1cc(F)ccc1NC(=O)c1ccc2c(cnn2CCN2CCOCC2)c1

>  <pchembl_value_mean>  (340) 
5.75

>  <document_chembl_id>  (340) 
CHEMBL3639382

$$$$

     RDKit          2D

 30 31  0  0  0  0  0  0  0  0999 V2000
    7.2990   -1.8481    0.0000 C   0  0  0  0  0  0  0  0  0  0  0  0
    6.0000   -2.5981    0.0000 C   0  0  0  0  0  0  0  0  0  0  0  0
    4.7010   -3.3481    0.0000 C   0  0  0  0  0  0  0  0  0  0  0  0
    6.7500   -3.8971    0.0000 C   0  0  0  0  0  0  0  0  0  0  0  0
    5.2500   -1.2990    0.0000 O   0  0  0  0  0  0  0  0  0  0  0  0
    3.7500   -1.2990    0.0000 C   0  0  0  0  0  0  0  0  0  0  0  0
    3.0000   -2.5981    0.0000 O   0  0  0  0  0  0  0  0  0  0  0  0
    3.0000    0.0000    0.0000 N   0  0  0  0  0  0  0  0  0  0  0  0
    1.5000    0.0000    0.0000 C   0  0  0  0  0  0  0  0  0  0  0  0
    0.7500   -1.2990    0.0000 C   0  0  0  0  0  0  0  0  0  0  0  0
   -0.7500   -1.2990    0.0000 C   0  0  0  0  0  0  0  0  0  0  0  0
   -1.5000    0.0000    0.0000 C   0  0  0  0  0  0  0  0  0  0  0  0
   -3.0000    0.0000    0.0000 C   0  0  0  0  0  0  0  0  0  0  0  0
   -3.8817   -1.2135    0.0000 C   0  0  0  0  0  0  0  0  0  0  0  0
   -5.3083   -0.7500    0.0000 C   0  0  0  0  0  0  0  0  0  0  0  0
   -6.5218   -1.6317    0.0000 C   0  0  0  0  0  0  0  0  0  0  0  0
   -6.3650   -3.1235    0.0000 O   0  0  0  0  0  0  0  0  0  0  0  0
   -7.8921   -1.0216    0.0000 N   0  0  0  0  0  0  0  0  0  0  0  0
   -9.1056   -1.9033    0.0000 C   0  0  0  0  0  0  0  0  0  0  0  0
  -10.4760   -1.2931    0.0000 C   0  0  0  0  0  0  0  0  0  0  0  0
  -11.6895   -2.1748    0.0000 C   0  0  0  0  0  0  0  0  0  0  0  0
  -13.0598   -1.5647    0.0000 C   0  0  0  0  0  0  0  0  0  0  0  0
  -14.2733   -2.4464    0.0000 C   0  0  0  0  0  0  0  0  0  0  0  0
  -14.1165   -3.9382    0.0000 O   0  0  0  0  0  0  0  0  0  0  0  0
  -15.6436   -1.8363    0.0000 N   0  0  0  0  0  0  0  0  0  0  0  0
  -16.8572   -2.7180    0.0000 O   0  0  0  0  0  0  0  0  0  0  0  0
   -5.3083    0.7500    0.0000 N   0  0  0  0  0  0  0  0  0  0  0  0
   -3.8817    1.2135    0.0000 O   0  0  0  0  0  0  0  0  0  0  0  0
   -0.7500    1.2990    0.0000 C   0  0  0  0  0  0  0  0  0  0  0  0
    0.7500    1.2990    0.0000 C   0  0  0  0  0  0  0  0  0  0  0  0
  1  2  1  0
  2  3  1  0
  2  4  1  0
  2  5  1  0
  5  6  1  0
  6  7  2  0
  6  8  1  0
  8  9  1  0
  9 10  2  0
 10 11  1  0
 11 12  2  0
 12 13  1  0
 13 14  2  0
 14 15  1  0
 15 16  1  0
 16 17  2  0
 16 18  1  0
 18 19  1  0
 19 20  1  0
 20 21  1  0
 21 22  1  0
 22 23  1  0
 23 24  2  0
 23 25  1  0
 25 26  1  0
 15 27  2  0
 27 28  1  0
 12 29  1  0
 29 30  2  0
 30  9  1  0
 28 13  1  0
M  END
>  <molecule_chembl_id>  (341) 
CHEMBL467792

>  <canonical_smiles>  (341) 
CC(C)(C)OC(=O)Nc1ccc(-c2cc(C(=O)NCCCCC(=O)NO)no2)cc1

>  <pchembl_value_mean>  (341) 
5.76

>  <document_chembl_id>  (341) 
CHEMBL1155917

$$$$

     RDKit          2D

 25 26  0  0  0  0  0  0  0  0999 V2000
    3.7500   -1.2990    0.0000 C   0  0  0  0  0  0  0  0  0  0  0  0
    3.0000    0.0000    0.0000 O   0  0  0  0  0  0  0  0  0  0  0  0
    1.5000    0.0000    0.0000 C   0  0  0  0  0  0  0  0  0  0  0  0
    0.7500   -1.2990    0.0000 C   0  0  0  0  0  0  0  0  0  0  0  0
   -0.7500   -1.2990    0.0000 C   0  0  0  0  0  0  0  0  0  0  0  0
   -1.5000    0.0000    0.0000 C   0  0  0  0  0  0  0  0  0  0  0  0
   -3.0000    0.0000    0.0000 O   0  0  0  0  0  0  0  0  0  0  0  0
   -3.7500   -1.2990    0.0000 C   0  0  0  0  0  0  0  0  0  0  0  0
   -0.7500    1.2990    0.0000 C   0  0  0  0  0  0  0  0  0  0  0  0
   -1.5000    2.5981    0.0000 C   0  0  0  0  0  0  0  0  0  0  0  0
   -0.7500    3.8971    0.0000 N   0  0  0  0  0  0  0  0  0  0  0  0
   -1.5000    5.1962    0.0000 C   0  0  0  0  0  0  0  0  0  0  0  0
   -0.7500    6.4952    0.0000 C   0  0  0  0  0  0  0  0  0  0  0  0
    0.7500    6.4952    0.0000 C   0  0  0  0  0  0  0  0  0  0  0  0
    1.5000    7.7942    0.0000 C   0  0  0  0  0  0  0  0  0  0  0  0
    0.7500    9.0933    0.0000 C   0  0  0  0  0  0  0  0  0  0  0  0
    1.5000   10.3923    0.0000 C   0  0  0  0  0  0  0  0  0  0  0  0
    3.0000   10.3923    0.0000 C   0  0  0  0  0  0  0  0  0  0  0  0
    3.7500   11.6913    0.0000 C   0  0  0  0  0  0  0  0  0  0  0  0
    3.0000   12.9904    0.0000 O   0  0  0  0  0  0  0  0  0  0  0  0
    5.2500   11.6913    0.0000 N   0  0  0  0  0  0  0  0  0  0  0  0
    6.0000   12.9904    0.0000 O   0  0  0  0  0  0  0  0  0  0  0  0
   -0.7500    9.0933    0.0000 C   0  0  0  0  0  0  0  0  0  0  0  0
   -1.5000    7.7942    0.0000 C   0  0  0  0  0  0  0  0  0  0  0  0
    0.7500    1.2990    0.0000 C   0  0  0  0  0  0  0  0  0  0  0  0
  1  2  1  0
  2  3  1  0
  3  4  2  0
  4  5  1  0
  5  6  2  0
  6  7  1  0
  7  8  1  0
  6  9  1  0
  9 10  1  0
 10 11  1  0
 11 12  1  0
 12 13  1  0
 13 14  2  0
 14 15  1  0
 15 16  2  0
 16 17  1  0
 17 18  2  3
 18 19  1  0
 19 20  2  0
 19 21  1  0
 21 22  1  0
 16 23  1  0
 23 24  2  0
  9 25  2  0
 25  3  1  0
 24 13  1  0
M  END
>  <molecule_chembl_id>  (342) 
CHEMBL4463774

>  <canonical_smiles>  (342) 
COc1ccc(OC)c(CNCc2ccc(C=CC(=O)NO)cc2)c1

>  <pchembl_value_mean>  (342) 
5.76

>  <document_chembl_id>  (342) 
CHEMBL4385666

$$$$

     RDKit          2D

 19 20  0  0  0  0  0  0  0  0999 V2000
    6.0000    0.0000    0.0000 O   0  0  0  0  0  0  0  0  0  0  0  0
    5.2500   -1.2990    0.0000 C   0  0  0  0  0  0  0  0  0  0  0  0
    3.7500   -1.2990    0.0000 C   0  0  0  0  0  0  0  0  0  0  0  0
    3.0000    0.0000    0.0000 C   0  0  0  0  0  0  0  0  0  0  0  0
    1.5000    0.0000    0.0000 C   0  0  0  0  0  0  0  0  0  0  0  0
    0.7500   -1.2990    0.0000 C   0  0  0  0  0  0  0  0  0  0  0  0
   -0.7500   -1.2990    0.0000 C   0  0  0  0  0  0  0  0  0  0  0  0
   -1.5000    0.0000    0.0000 C   0  0  0  0  0  0  0  0  0  0  0  0
   -3.0000    0.0000    0.0000 C   0  0  0  0  0  0  0  0  0  0  0  0
   -3.7500    1.2990    0.0000 C   0  0  0  0  0  0  0  0  0  0  0  0
   -5.2500    1.2990    0.0000 C   0  0  0  0  0  0  0  0  0  0  0  0
   -6.0000    0.0000    0.0000 C   0  0  0  0  0  0  0  0  0  0  0  0
   -7.5000    0.0000    0.0000 O   0  0  0  0  0  0  0  0  0  0  0  0
   -5.2500   -1.2990    0.0000 C   0  0  0  0  0  0  0  0  0  0  0  0
   -3.7500   -1.2990    0.0000 C   0  0  0  0  0  0  0  0  0  0  0  0
   -0.7500    1.2990    0.0000 C   0  0  0  0  0  0  0  0  0  0  0  0
    0.7500    1.2990    0.0000 C   0  0  0  0  0  0  0  0  0  0  0  0
    6.0000   -2.5981    0.0000 N   0  0  0  0  0  0  0  0  0  0  0  0
    7.5000   -2.5981    0.0000 O   0  0  0  0  0  0  0  0  0  0  0  0
  1  2  2  0
  2  3  1  0
  3  4  1  0
  4  5  1  0
  5  6  2  0
  6  7  1  0
  7  8  2  0
  8  9  1  0
  9 10  2  0
 10 11  1  0
 11 12  2  0
 12 13  1  0
 12 14  1  0
 14 15  2  0
  8 16  1  0
 16 17  2  0
  2 18  1  0
 18 19  1  0
 17  5  1  0
 15  9  1  0
M  END
>  <molecule_chembl_id>  (343) 
CHEMBL551151

>  <canonical_smiles>  (343) 
O=C(CCc1ccc(-c2ccc(O)cc2)cc1)NO

>  <pchembl_value_mean>  (343) 
5.77

>  <document_chembl_id>  (343) 
CHEMBL1158371

$$$$

     RDKit          2D

 22 23  0  0  0  0  0  0  0  0999 V2000
   10.4688  -10.2562    0.0000 O   0  0  0  0  0  0  0  0  0  0  0  0
    9.2553  -11.1379    0.0000 C   0  0  0  0  0  0  0  0  0  0  0  0
    7.8850  -10.5278    0.0000 C   0  0  0  0  0  0  0  0  0  0  0  0
    7.7282   -9.0360    0.0000 C   0  0  0  0  0  0  0  0  0  0  0  0
    6.3579   -8.4259    0.0000 C   0  0  0  0  0  0  0  0  0  0  0  0
    6.2011   -6.9341    0.0000 C   0  0  0  0  0  0  0  0  0  0  0  0
    4.8308   -6.3240    0.0000 N   0  0  0  0  0  0  0  0  0  0  0  0
    4.6740   -4.8322    0.0000 C   0  0  0  0  0  0  0  0  0  0  0  0
    5.8875   -3.9505    0.0000 O   0  0  0  0  0  0  0  0  0  0  0  0
    3.3037   -4.2221    0.0000 C   0  0  0  0  0  0  0  0  0  0  0  0
    2.9918   -2.7549    0.0000 C   0  0  0  0  0  0  0  0  0  0  0  0
    1.5000   -2.5981    0.0000 C   0  0  0  0  0  0  0  0  0  0  0  0
    0.7500   -1.2990    0.0000 C   0  0  0  0  0  0  0  0  0  0  0  0
    1.5000    0.0000    0.0000 C   0  0  0  0  0  0  0  0  0  0  0  0
    0.7500    1.2990    0.0000 C   0  0  0  0  0  0  0  0  0  0  0  0
   -0.7500    1.2990    0.0000 C   0  0  0  0  0  0  0  0  0  0  0  0
   -1.5000    0.0000    0.0000 C   0  0  0  0  0  0  0  0  0  0  0  0
   -0.7500   -1.2990    0.0000 C   0  0  0  0  0  0  0  0  0  0  0  0
    0.8899   -3.9684    0.0000 O   0  0  0  0  0  0  0  0  0  0  0  0
    2.0046   -4.9721    0.0000 N   0  0  0  0  0  0  0  0  0  0  0  0
    9.4121  -12.6296    0.0000 N   0  0  0  0  0  0  0  0  0  0  0  0
   10.7824  -13.2397    0.0000 O   0  0  0  0  0  0  0  0  0  0  0  0
  1  2  2  0
  2  3  1  0
  3  4  1  0
  4  5  1  0
  5  6  1  0
  6  7  1  0
  7  8  1  0
  8  9  2  0
  8 10  1  0
 10 11  1  0
 11 12  2  0
 12 13  1  0
 13 14  2  0
 14 15  1  0
 15 16  2  0
 16 17  1  0
 17 18  2  0
 12 19  1  0
 19 20  1  0
  2 21  1  0
 21 22  1  0
 20 10  2  0
 18 13  1  0
M  END
>  <molecule_chembl_id>  (344) 
CHEMBL467998

>  <canonical_smiles>  (344) 
O=C(CCCCNC(=O)c1cc(-c2ccccc2)on1)NO

>  <pchembl_value_mean>  (344) 
5.77

>  <document_chembl_id>  (344) 
CHEMBL1155917

$$$$

     RDKit          2D

 30 32  0  0  0  0  0  0  0  0999 V2000
    1.5000   -7.7942    0.0000 C   0  0  0  0  0  0  0  0  0  0  0  0
    0.7500   -6.4952    0.0000 C   0  0  0  0  0  0  0  0  0  0  0  0
   -0.7500   -6.4952    0.0000 C   0  0  0  0  0  0  0  0  0  0  0  0
    1.5000   -5.1962    0.0000 C   0  0  0  0  0  0  0  0  0  0  0  0
    0.7500   -3.8971    0.0000 C   0  0  0  0  0  0  0  0  0  0  0  0
   -0.7500   -3.8971    0.0000 O   0  0  0  0  0  0  0  0  0  0  0  0
    1.5000   -2.5981    0.0000 N   0  0  0  0  0  0  0  0  0  0  0  0
    0.7500   -1.2990    0.0000 C   0  0  0  0  0  0  0  0  0  0  0  0
    1.5000    0.0000    0.0000 C   0  0  0  0  0  0  0  0  0  0  0  0
    0.7500    1.2990    0.0000 C   0  0  0  0  0  0  0  0  0  0  0  0
   -0.7500    1.2990    0.0000 C   0  0  0  0  0  0  0  0  0  0  0  0
   -1.5000    2.5981    0.0000 C   0  0  0  0  0  0  0  0  0  0  0  0
   -3.0000    2.5981    0.0000 O   0  0  0  0  0  0  0  0  0  0  0  0
   -0.7500    3.8971    0.0000 N   0  0  0  0  0  0  0  0  0  0  0  0
   -1.5000    5.1962    0.0000 C   0  0  0  0  0  0  0  0  0  0  0  0
   -0.7500    6.4952    0.0000 C   0  0  0  0  0  0  0  0  0  0  0  0
   -1.5000    7.7942    0.0000 C   0  0  0  0  0  0  0  0  0  0  0  0
   -3.0000    7.7942    0.0000 C   0  0  0  0  0  0  0  0  0  0  0  0
   -3.7500    9.0933    0.0000 F   0  0  0  0  0  0  0  0  0  0  0  0
   -3.7500    6.4952    0.0000 C   0  0  0  0  0  0  0  0  0  0  0  0
   -3.0000    5.1962    0.0000 C   0  0  0  0  0  0  0  0  0  0  0  0
   -3.7500    3.8971    0.0000 N   0  0  0  0  0  0  0  0  0  0  0  0
   -1.5000    0.0000    0.0000 N   0  0  0  0  0  0  0  0  0  0  0  0
   -0.7500   -1.2990    0.0000 C   0  0  0  0  0  0  0  0  0  0  0  0
    3.0000   -5.1962    0.0000 C   0  0  0  0  0  0  0  0  0  0  0  0
    3.7500   -6.4952    0.0000 C   0  0  0  0  0  0  0  0  0  0  0  0
    5.2500   -6.4952    0.0000 C   0  0  0  0  0  0  0  0  0  0  0  0
    6.0000   -5.1962    0.0000 C   0  0  0  0  0  0  0  0  0  0  0  0
    5.2500   -3.8971    0.0000 C   0  0  0  0  0  0  0  0  0  0  0  0
    3.7500   -3.8971    0.0000 C   0  0  0  0  0  0  0  0  0  0  0  0
  1  2  1  0
  2  3  1  0
  2  4  1  0
  4  5  1  0
  5  6  2  0
  5  7  1  0
  7  8  1  0
  8  9  2  0
  9 10  1  0
 10 11  2  0
 11 12  1  0
 12 13  2  0
 12 14  1  0
 14 15  1  0
 15 16  2  0
 16 17  1  0
 17 18  2  0
 18 19  1  0
 18 20  1  0
 20 21  2  0
 21 22  1  0
 11 23  1  0
 23 24  2  0
  4 25  1  0
 25 26  2  0
 26 27  1  0
 27 28  2  0
 28 29  1  0
 29 30  2  0
 24  8  1  0
 30 25  1  0
 21 15  1  0
M  END
>  <molecule_chembl_id>  (345) 
CHEMBL4159087

>  <canonical_smiles>  (345) 
CC(C)C(C(=O)Nc1ccc(C(=O)Nc2ccc(F)cc2N)nc1)c1ccccc1

>  <pchembl_value_mean>  (345) 
5.78

>  <document_chembl_id>  (345) 
CHEMBL4130443

$$$$

     RDKit          2D

 27 30  0  0  0  0  0  0  0  0999 V2000
    4.1110   -5.4376    0.0000 C   0  0  0  0  0  0  0  0  0  0  0  0
    2.7406   -4.8275    0.0000 N   0  0  0  0  0  0  0  0  0  0  0  0
    1.5271   -5.7092    0.0000 C   0  0  0  0  0  0  0  0  0  0  0  0
    0.1568   -5.0991    0.0000 C   0  0  0  0  0  0  0  0  0  0  0  0
   -0.0000   -3.6073    0.0000 C   0  0  0  0  0  0  0  0  0  0  0  0
    1.2135   -2.7256    0.0000 C   0  0  0  0  0  0  0  0  0  0  0  0
    0.7500   -1.2990    0.0000 C   0  0  0  0  0  0  0  0  0  0  0  0
    1.5000    0.0000    0.0000 C   0  0  0  0  0  0  0  0  0  0  0  0
    0.7500    1.2990    0.0000 C   0  0  0  0  0  0  0  0  0  0  0  0
   -0.7500    1.2990    0.0000 C   0  0  0  0  0  0  0  0  0  0  0  0
   -1.5000    0.0000    0.0000 C   0  0  0  0  0  0  0  0  0  0  0  0
   -0.7500   -1.2990    0.0000 C   0  0  0  0  0  0  0  0  0  0  0  0
   -1.2135   -2.7256    0.0000 N   0  0  0  0  0  0  0  0  0  0  0  0
   -2.6401   -3.1891    0.0000 C   0  0  0  0  0  0  0  0  0  0  0  0
   -3.7548   -2.1855    0.0000 C   0  0  0  0  0  0  0  0  0  0  0  0
   -3.4430   -0.7182    0.0000 C   0  0  0  0  0  0  0  0  0  0  0  0
   -4.5577    0.2855    0.0000 C   0  0  0  0  0  0  0  0  0  0  0  0
   -5.9843   -0.1781    0.0000 C   0  0  0  0  0  0  0  0  0  0  0  0
   -7.0990    0.8256    0.0000 C   0  0  0  0  0  0  0  0  0  0  0  0
   -6.7871    2.2929    0.0000 C   0  0  0  0  0  0  0  0  0  0  0  0
   -7.9018    3.2966    0.0000 C   0  0  0  0  0  0  0  0  0  0  0  0
   -9.3284    2.8330    0.0000 O   0  0  0  0  0  0  0  0  0  0  0  0
   -7.5900    4.7638    0.0000 N   0  0  0  0  0  0  0  0  0  0  0  0
   -8.7047    5.7675    0.0000 O   0  0  0  0  0  0  0  0  0  0  0  0
   -6.2961   -1.6453    0.0000 C   0  0  0  0  0  0  0  0  0  0  0  0
   -5.1814   -2.6490    0.0000 C   0  0  0  0  0  0  0  0  0  0  0  0
    2.5838   -3.3357    0.0000 C   0  0  0  0  0  0  0  0  0  0  0  0
  1  2  1  0
  2  3  1  0
  3  4  1  0
  4  5  1  0
  5  6  2  0
  6  7  1  0
  7  8  2  0
  8  9  1  0
  9 10  2  0
 10 11  1  0
 11 12  2  0
 12 13  1  0
 13 14  1  0
 14 15  1  0
 15 16  2  0
 16 17  1  0
 17 18  2  0
 18 19  1  0
 19 20  2  3
 20 21  1  0
 21 22  2  0
 21 23  1  0
 23 24  1  0
 18 25  1  0
 25 26  2  0
  6 27  1  0
 27  2  1  0
 13  5  1  0
 26 15  1  0
 12  7  1  0
M  END
>  <molecule_chembl_id>  (346) 
CHEMBL4084222

>  <canonical_smiles>  (346) 
CN1CCc2c(c3ccccc3n2Cc2ccc(C=CC(=O)NO)cc2)C1

>  <pchembl_value_mean>  (346) 
5.78

>  <document_chembl_id>  (346) 
CHEMBL3994606

$$$$

     RDKit          2D

 29 32  0  0  0  0  0  0  0  0999 V2000
   -7.7942  -12.6073    0.0000 N   0  0  0  0  0  0  0  0  0  0  0  0
   -9.0933  -11.8573    0.0000 C   0  0  0  0  0  0  0  0  0  0  0  0
  -10.3923  -12.6073    0.0000 C   0  0  0  0  0  0  0  0  0  0  0  0
  -11.6913  -11.8573    0.0000 C   0  0  0  0  0  0  0  0  0  0  0  0
  -11.6913  -10.3573    0.0000 C   0  0  0  0  0  0  0  0  0  0  0  0
  -10.3923   -9.6073    0.0000 C   0  0  0  0  0  0  0  0  0  0  0  0
   -9.0933  -10.3573    0.0000 C   0  0  0  0  0  0  0  0  0  0  0  0
   -7.7942   -9.6073    0.0000 N   0  0  0  0  0  0  0  0  0  0  0  0
   -6.4952  -10.3573    0.0000 C   0  0  0  0  0  0  0  0  0  0  0  0
   -6.4952  -11.8573    0.0000 O   0  0  0  0  0  0  0  0  0  0  0  0
   -5.1962   -9.6073    0.0000 C   0  0  0  0  0  0  0  0  0  0  0  0
   -3.8971  -10.3573    0.0000 C   0  0  0  0  0  0  0  0  0  0  0  0
   -2.5981   -9.6073    0.0000 C   0  0  0  0  0  0  0  0  0  0  0  0
   -2.5981   -8.1073    0.0000 C   0  0  0  0  0  0  0  0  0  0  0  0
   -1.2990   -7.3573    0.0000 C   0  0  0  0  0  0  0  0  0  0  0  0
   -1.2990   -5.8573    0.0000 N   0  0  0  0  0  0  0  0  0  0  0  0
   -0.0000   -5.1073    0.0000 C   0  0  0  0  0  0  0  0  0  0  0  0
    1.2990   -5.8573    0.0000 O   0  0  0  0  0  0  0  0  0  0  0  0
   -0.0000   -3.6073    0.0000 C   0  0  0  0  0  0  0  0  0  0  0  0
    1.2135   -2.7256    0.0000 C   0  0  0  0  0  0  0  0  0  0  0  0
    0.7500   -1.2990    0.0000 C   0  0  0  0  0  0  0  0  0  0  0  0
    1.5000    0.0000    0.0000 C   0  0  0  0  0  0  0  0  0  0  0  0
    0.7500    1.2990    0.0000 C   0  0  0  0  0  0  0  0  0  0  0  0
   -0.7500    1.2990    0.0000 C   0  0  0  0  0  0  0  0  0  0  0  0
   -1.5000    0.0000    0.0000 C   0  0  0  0  0  0  0  0  0  0  0  0
   -0.7500   -1.2990    0.0000 C   0  0  0  0  0  0  0  0  0  0  0  0
   -1.2135   -2.7256    0.0000 S   0  0  0  0  0  0  0  0  0  0  0  0
   -3.8971   -7.3573    0.0000 C   0  0  0  0  0  0  0  0  0  0  0  0
   -5.1962   -8.1073    0.0000 C   0  0  0  0  0  0  0  0  0  0  0  0
  1  2  1  0
  2  3  2  0
  3  4  1  0
  4  5  2  0
  5  6  1  0
  6  7  2  0
  7  8  1  0
  8  9  1  0
  9 10  2  0
  9 11  1  0
 11 12  2  0
 12 13  1  0
 13 14  2  0
 14 15  1  0
 15 16  1  0
 16 17  1  0
 17 18  2  0
 17 19  1  0
 19 20  2  0
 20 21  1  0
 21 22  2  0
 22 23  1  0
 23 24  2  0
 24 25  1  0
 25 26  2  0
 26 27  1  0
 14 28  1  0
 28 29  2  0
  7  2  1  0
 29 11  1  0
 27 19  1  0
 26 21  1  0
M  END
>  <molecule_chembl_id>  (347) 
CHEMBL3673111

>  <canonical_smiles>  (347) 
Nc1ccccc1NC(=O)c1ccc(CNC(=O)c2cc3ccccc3s2)cc1

>  <pchembl_value_mean>  (347) 
5.78

>  <document_chembl_id>  (347) 
CHEMBL3638911

$$$$

     RDKit          2D

 23 25  0  0  0  0  0  0  0  0999 V2000
    3.0000  -12.9904    0.0000 O   0  0  0  0  0  0  0  0  0  0  0  0
    1.5000  -12.9904    0.0000 C   0  0  0  0  0  0  0  0  0  0  0  0
    0.7500  -11.6913    0.0000 C   0  0  0  0  0  0  0  0  0  0  0  0
    1.5000  -10.3923    0.0000 C   0  0  0  0  0  0  0  0  0  0  0  0
    0.7500   -9.0933    0.0000 C   0  0  0  0  0  0  0  0  0  0  0  0
    1.5000   -7.7942    0.0000 C   0  0  0  0  0  0  0  0  0  0  0  0
    0.7500   -6.4952    0.0000 C   0  0  0  0  0  0  0  0  0  0  0  0
    1.5000   -5.1962    0.0000 N   0  0  0  0  0  0  0  0  0  0  0  0
    0.7500   -3.8971    0.0000 C   0  0  0  0  0  0  0  0  0  0  0  0
   -0.7500   -3.8971    0.0000 O   0  0  0  0  0  0  0  0  0  0  0  0
    1.5000   -2.5981    0.0000 N   0  0  0  0  0  0  0  0  0  0  0  0
    0.7500   -1.2990    0.0000 C   0  0  0  0  0  0  0  0  0  0  0  0
    1.5000    0.0000    0.0000 C   0  0  0  0  0  0  0  0  0  0  0  0
    0.7500    1.2990    0.0000 C   0  0  0  0  0  0  0  0  0  0  0  0
   -0.7500    1.2990    0.0000 C   0  0  0  0  0  0  0  0  0  0  0  0
   -1.5000    0.0000    0.0000 C   0  0  0  0  0  0  0  0  0  0  0  0
    1.7010   -0.7500    0.0000 C   0  0  0  0  0  0  0  0  0  0  0  0
    3.0000   -0.0000    0.0000 C   0  0  0  0  0  0  0  0  0  0  0  0
    2.2500    1.2990    0.0000 C   0  0  0  0  0  0  0  0  0  0  0  0
    2.2500   -1.2990    0.0000 C   0  0  0  0  0  0  0  0  0  0  0  0
   -0.7500   -1.2990    0.0000 C   0  0  0  0  0  0  0  0  0  0  0  0
    0.7500  -14.2894    0.0000 N   0  0  0  0  0  0  0  0  0  0  0  0
    1.5000  -15.5885    0.0000 O   0  0  0  0  0  0  0  0  0  0  0  0
  1  2  2  0
  2  3  1  0
  3  4  1  0
  4  5  1  0
  5  6  1  0
  6  7  1  0
  7  8  1  0
  8  9  1  0
  9 10  2  0
  9 11  1  0
 11 12  1  0
 12 13  1  0
 13 14  1  0
 14 15  1  0
 15 16  1  0
 16 17  1  0
 17 18  1  0
 18 19  1  0
 18 20  1  0
 16 21  1  0
  2 22  1  0
 22 23  1  0
 20 12  1  0
 21 12  1  0
 19 14  1  0
M  END
>  <molecule_chembl_id>  (348) 
CHEMBL227118

>  <canonical_smiles>  (348) 
O=C(CCCCCNC(=O)NC12CC3CC(CC(C3)C1)C2)NO

>  <pchembl_value_mean>  (348) 
5.785

>  <document_chembl_id>  (348) 
CHEMBL1145385

$$$$

     RDKit          2D

 22 23  0  0  0  0  0  0  0  0999 V2000
   10.2760   -2.5981    0.0000 O   0  0  0  0  0  0  0  0  0  0  0  0
    9.5260   -3.8971    0.0000 C   0  0  0  0  0  0  0  0  0  0  0  0
    8.0260   -3.8971    0.0000 C   0  0  0  0  0  0  0  0  0  0  0  0
    7.2760   -2.5981    0.0000 C   0  0  0  0  0  0  0  0  0  0  0  0
    5.7760   -2.5981    0.0000 C   0  0  0  0  0  0  0  0  0  0  0  0
    5.0260   -1.2990    0.0000 C   0  0  0  0  0  0  0  0  0  0  0  0
    3.5260   -1.2990    0.0000 C   0  0  0  0  0  0  0  0  0  0  0  0
    2.7760    0.0000    0.0000 C   0  0  0  0  0  0  0  0  0  0  0  0
    1.2760    0.0000    0.0000 C   0  0  0  0  0  0  0  0  0  0  0  0
    0.3943    1.2135    0.0000 N   0  0  0  0  0  0  0  0  0  0  0  0
   -1.0323    0.7500    0.0000 C   0  0  0  0  0  0  0  0  0  0  0  0
   -2.2458    1.6317    0.0000 C   0  0  0  0  0  0  0  0  0  0  0  0
   -3.6724    1.1682    0.0000 C   0  0  0  0  0  0  0  0  0  0  0  0
   -4.5541    2.3817    0.0000 C   0  0  0  0  0  0  0  0  0  0  0  0
   -3.6724    3.5952    0.0000 C   0  0  0  0  0  0  0  0  0  0  0  0
   -2.2458    3.1317    0.0000 S   0  0  0  0  0  0  0  0  0  0  0  0
   -1.0323   -0.7500    0.0000 N   0  0  0  0  0  0  0  0  0  0  0  0
    0.3943   -1.2135    0.0000 O   0  0  0  0  0  0  0  0  0  0  0  0
   10.2760   -5.1962    0.0000 C   0  0  0  0  0  0  0  0  0  0  0  0
   11.0260   -6.4952    0.0000 F   0  0  0  0  0  0  0  0  0  0  0  0
   11.5750   -4.4462    0.0000 F   0  0  0  0  0  0  0  0  0  0  0  0
    8.9769   -5.9462    0.0000 F   0  0  0  0  0  0  0  0  0  0  0  0
  1  2  2  0
  2  3  1  0
  3  4  1  0
  4  5  1  0
  5  6  1  0
  6  7  1  0
  7  8  1  0
  8  9  1  0
  9 10  2  0
 10 11  1  0
 11 12  1  0
 12 13  2  0
 13 14  1  0
 14 15  2  0
 15 16  1  0
 11 17  2  0
 17 18  1  0
  2 19  1  0
 19 20  1  0
 19 21  1  0
 19 22  1  0
 18  9  1  0
 16 12  1  0
M  END
>  <molecule_chembl_id>  (349) 
CHEMBL3585988

>  <canonical_smiles>  (349) 
O=C(CCCCCCc1nc(-c2cccs2)no1)C(F)(F)F

>  <pchembl_value_mean>  (349) 
5.79

>  <document_chembl_id>  (349) 
CHEMBL3585316

$$$$

     RDKit          2D

 28 30  0  0  0  0  0  0  0  0999 V2000
   -4.3786   -5.1199    0.0000 C   0  0  0  0  0  0  0  0  0  0  0  0
   -2.9520   -4.6564    0.0000 N   0  0  0  0  0  0  0  0  0  0  0  0
   -1.8373   -5.6601    0.0000 C   0  0  0  0  0  0  0  0  0  0  0  0
   -2.6401   -3.1891    0.0000 C   0  0  0  0  0  0  0  0  0  0  0  0
   -1.2135   -2.7256    0.0000 C   0  0  0  0  0  0  0  0  0  0  0  0
   -0.0000   -3.6073    0.0000 C   0  0  0  0  0  0  0  0  0  0  0  0
    1.2135   -2.7256    0.0000 N   0  0  0  0  0  0  0  0  0  0  0  0
    2.6401   -3.1891    0.0000 S   0  0  0  0  0  0  0  0  0  0  0  0
    3.1036   -1.7626    0.0000 O   0  0  0  0  0  0  0  0  0  0  0  0
    2.1766   -4.6157    0.0000 O   0  0  0  0  0  0  0  0  0  0  0  0
    4.0667   -3.6527    0.0000 C   0  0  0  0  0  0  0  0  0  0  0  0
    4.3786   -5.1199    0.0000 C   0  0  0  0  0  0  0  0  0  0  0  0
    5.8051   -5.5834    0.0000 C   0  0  0  0  0  0  0  0  0  0  0  0
    6.9199   -4.5797    0.0000 C   0  0  0  0  0  0  0  0  0  0  0  0
    6.6080   -3.1125    0.0000 C   0  0  0  0  0  0  0  0  0  0  0  0
    7.7227   -2.1088    0.0000 C   0  0  0  0  0  0  0  0  0  0  0  0
    9.1493   -2.5723    0.0000 C   0  0  0  0  0  0  0  0  0  0  0  0
   10.2640   -1.5686    0.0000 C   0  0  0  0  0  0  0  0  0  0  0  0
    9.9521   -0.1014    0.0000 O   0  0  0  0  0  0  0  0  0  0  0  0
   11.6906   -2.0322    0.0000 N   0  0  0  0  0  0  0  0  0  0  0  0
   12.8053   -1.0285    0.0000 O   0  0  0  0  0  0  0  0  0  0  0  0
    5.1814   -2.6490    0.0000 C   0  0  0  0  0  0  0  0  0  0  0  0
    0.7500   -1.2990    0.0000 C   0  0  0  0  0  0  0  0  0  0  0  0
    1.5000    0.0000    0.0000 C   0  0  0  0  0  0  0  0  0  0  0  0
    0.7500    1.2990    0.0000 C   0  0  0  0  0  0  0  0  0  0  0  0
   -0.7500    1.2990    0.0000 C   0  0  0  0  0  0  0  0  0  0  0  0
   -1.5000    0.0000    0.0000 C   0  0  0  0  0  0  0  0  0  0  0  0
   -0.7500   -1.2990    0.0000 C   0  0  0  0  0  0  0  0  0  0  0  0
  1  2  1  0
  2  3  1  0
  2  4  1  0
  4  5  1  0
  5  6  2  0
  6  7  1  0
  7  8  1  0
  8  9  2  0
  8 10  2  0
  8 11  1  0
 11 12  2  0
 12 13  1  0
 13 14  2  0
 14 15  1  0
 15 16  1  0
 16 17  2  3
 17 18  1  0
 18 19  2  0
 18 20  1  0
 20 21  1  0
 15 22  2  0
  7 23  1  0
 23 24  2  0
 24 25  1  0
 25 26  2  0
 26 27  1  0
 27 28  2  0
 28  5  1  0
 22 11  1  0
 28 23  1  0
M  END
>  <molecule_chembl_id>  (350) 
CHEMBL4094410

>  <canonical_smiles>  (350) 
CN(C)Cc1cn(S(=O)(=O)c2cccc(C=CC(=O)NO)c2)c2ccccc12

>  <pchembl_value_mean>  (350) 
5.79

>  <document_chembl_id>  (350) 
CHEMBL3994606

$$$$

     RDKit          2D

 24 26  0  0  0  0  0  0  0  0999 V2000
    1.5000   -5.1962    0.0000 C   0  0  0  0  0  0  0  0  0  0  0  0
    0.7500   -3.8971    0.0000 C   0  0  0  0  0  0  0  0  0  0  0  0
    1.5000   -2.5981    0.0000 N   0  0  0  0  0  0  0  0  0  0  0  0
    0.7500   -1.2990    0.0000 C   0  0  0  0  0  0  0  0  0  0  0  0
    1.5000    0.0000    0.0000 C   0  0  0  0  0  0  0  0  0  0  0  0
    0.7500    1.2990    0.0000 C   0  0  0  0  0  0  0  0  0  0  0  0
    1.5000    2.5981    0.0000 C   0  0  0  0  0  0  0  0  0  0  0  0
    3.0000    2.5981    0.0000 C   0  0  0  0  0  0  0  0  0  0  0  0
    3.7500    3.8971    0.0000 C   0  0  0  0  0  0  0  0  0  0  0  0
    3.0000    5.1962    0.0000 O   0  0  0  0  0  0  0  0  0  0  0  0
    5.2500    3.8971    0.0000 N   0  0  0  0  0  0  0  0  0  0  0  0
    6.0000    5.1962    0.0000 O   0  0  0  0  0  0  0  0  0  0  0  0
   -0.7500    1.2990    0.0000 C   0  0  0  0  0  0  0  0  0  0  0  0
   -1.5000    0.0000    0.0000 C   0  0  0  0  0  0  0  0  0  0  0  0
   -0.7500   -1.2990    0.0000 C   0  0  0  0  0  0  0  0  0  0  0  0
   -1.5000   -2.5981    0.0000 C   0  0  0  0  0  0  0  0  0  0  0  0
   -3.0000   -2.5981    0.0000 O   0  0  0  0  0  0  0  0  0  0  0  0
   -0.7500   -3.8971    0.0000 N   0  0  0  0  0  0  0  0  0  0  0  0
   -1.5000   -5.1962    0.0000 C   0  0  0  0  0  0  0  0  0  0  0  0
   -3.0000   -5.1962    0.0000 C   0  0  0  0  0  0  0  0  0  0  0  0
   -3.7500   -6.4952    0.0000 C   0  0  0  0  0  0  0  0  0  0  0  0
   -3.0000   -7.7942    0.0000 C   0  0  0  0  0  0  0  0  0  0  0  0
   -1.5000   -7.7942    0.0000 C   0  0  0  0  0  0  0  0  0  0  0  0
   -0.7500   -6.4952    0.0000 C   0  0  0  0  0  0  0  0  0  0  0  0
  1  2  1  0
  2  3  2  0
  3  4  1  0
  4  5  2  0
  5  6  1  0
  6  7  1  0
  7  8  2  3
  8  9  1  0
  9 10  2  0
  9 11  1  0
 11 12  1  0
  6 13  2  0
 13 14  1  0
 14 15  2  0
 15 16  1  0
 16 17  2  0
 16 18  1  0
 18 19  1  0
 19 20  2  0
 20 21  1  0
 21 22  2  0
 22 23  1  0
 23 24  2  0
 18  2  1  0
 24 19  1  0
 15  4  1  0
M  END
>  <molecule_chembl_id>  (351) 
CHEMBL2425955

>  <canonical_smiles>  (351) 
Cc1nc2cc(C=CC(=O)NO)ccc2c(=O)n1-c1ccccc1

>  <pchembl_value_mean>  (351) 
5.79

>  <document_chembl_id>  (351) 
CHEMBL2424579

$$$$

     RDKit          2D

 18 19  0  0  0  0  0  0  0  0999 V2000
   -0.3991   -2.9329    0.0000 C   0  0  0  0  0  0  0  0  0  0  0  0
    0.7500   -3.8971    0.0000 C   0  0  0  0  0  0  0  0  0  0  0  0
    1.5000   -2.5981    0.0000 N   0  0  0  0  0  0  0  0  0  0  0  0
    0.7500   -1.2990    0.0000 C   0  0  0  0  0  0  0  0  0  0  0  0
    1.5000    0.0000    0.0000 N   0  0  0  0  0  0  0  0  0  0  0  0
    0.7500    1.2990    0.0000 C   0  0  0  0  0  0  0  0  0  0  0  0
   -0.7500    1.2990    0.0000 C   0  0  0  0  0  0  0  0  0  0  0  0
   -1.5000    2.5981    0.0000 C   0  0  0  0  0  0  0  0  0  0  0  0
   -3.0000    2.5981    0.0000 O   0  0  0  0  0  0  0  0  0  0  0  0
   -0.7500    3.8971    0.0000 N   0  0  0  0  0  0  0  0  0  0  0  0
   -1.5000    5.1962    0.0000 O   0  0  0  0  0  0  0  0  0  0  0  0
   -1.5000    0.0000    0.0000 C   0  0  0  0  0  0  0  0  0  0  0  0
   -0.7500   -1.2990    0.0000 N   0  0  0  0  0  0  0  0  0  0  0  0
    2.1595   -4.4101    0.0000 C   0  0  0  0  0  0  0  0  0  0  0  0
    2.4200   -5.8874    0.0000 C   0  0  0  0  0  0  0  0  0  0  0  0
    1.2709   -6.8515    0.0000 C   0  0  0  0  0  0  0  0  0  0  0  0
   -0.1386   -6.3385    0.0000 C   0  0  0  0  0  0  0  0  0  0  0  0
   -0.3991   -4.8613    0.0000 C   0  0  0  0  0  0  0  0  0  0  0  0
  1  2  1  0
  2  3  1  0
  3  4  1  0
  4  5  2  0
  5  6  1  0
  6  7  2  0
  7  8  1  0
  8  9  2  0
  8 10  1  0
 10 11  1  0
  7 12  1  0
 12 13  2  0
  2 14  1  0
 14 15  1  0
 15 16  1  0
 16 17  1  0
 17 18  1  0
 18  2  1  0
 13  4  1  0
M  END
>  <molecule_chembl_id>  (352) 
CHEMBL3655987

>  <canonical_smiles>  (352) 
CC1(Nc2ncc(C(=O)NO)cn2)CCCCC1

>  <pchembl_value_mean>  (352) 
5.79

>  <document_chembl_id>  (352) 
CHEMBL3639071

$$$$

     RDKit          2D

 25 26  0  0  0  0  0  0  0  0999 V2000
    3.0000    0.0000    0.0000 C   0  0  0  0  0  0  0  0  0  0  0  0
    1.5000    0.0000    0.0000 C   0  0  0  0  0  0  0  0  0  0  0  0
    0.7500   -1.2990    0.0000 C   0  0  0  0  0  0  0  0  0  0  0  0
   -0.7500   -1.2990    0.0000 C   0  0  0  0  0  0  0  0  0  0  0  0
   -1.5000    0.0000    0.0000 C   0  0  0  0  0  0  0  0  0  0  0  0
   -3.0000    0.0000    0.0000 C   0  0  0  0  0  0  0  0  0  0  0  0
   -3.7500   -1.2990    0.0000 O   0  0  0  0  0  0  0  0  0  0  0  0
   -3.7500    1.2990    0.0000 N   0  0  0  0  0  0  0  0  0  0  0  0
   -5.2500    1.2990    0.0000 C   0  0  0  0  0  0  0  0  0  0  0  0
   -6.0000    2.5981    0.0000 C   0  0  0  0  0  0  0  0  0  0  0  0
   -7.5000    2.5981    0.0000 C   0  0  0  0  0  0  0  0  0  0  0  0
   -8.2500    3.8971    0.0000 C   0  0  0  0  0  0  0  0  0  0  0  0
   -9.7500    3.8971    0.0000 C   0  0  0  0  0  0  0  0  0  0  0  0
  -10.5000    5.1962    0.0000 C   0  0  0  0  0  0  0  0  0  0  0  0
   -9.7500    6.4952    0.0000 O   0  0  0  0  0  0  0  0  0  0  0  0
  -12.0000    5.1962    0.0000 N   0  0  0  0  0  0  0  0  0  0  0  0
  -12.7500    6.4952    0.0000 C   0  0  0  0  0  0  0  0  0  0  0  0
  -12.0000    7.7942    0.0000 C   0  0  0  0  0  0  0  0  0  0  0  0
  -12.7500    9.0933    0.0000 C   0  0  0  0  0  0  0  0  0  0  0  0
  -14.2500    9.0933    0.0000 C   0  0  0  0  0  0  0  0  0  0  0  0
  -15.0000    7.7942    0.0000 C   0  0  0  0  0  0  0  0  0  0  0  0
  -14.2500    6.4952    0.0000 C   0  0  0  0  0  0  0  0  0  0  0  0
  -15.0000    5.1962    0.0000 N   0  0  0  0  0  0  0  0  0  0  0  0
   -0.7500    1.2990    0.0000 C   0  0  0  0  0  0  0  0  0  0  0  0
    0.7500    1.2990    0.0000 C   0  0  0  0  0  0  0  0  0  0  0  0
  1  2  1  0
  2  3  2  0
  3  4  1  0
  4  5  2  0
  5  6  1  0
  6  7  2  0
  6  8  1  0
  8  9  1  0
  9 10  1  0
 10 11  1  0
 11 12  1  0
 12 13  1  0
 13 14  1  0
 14 15  2  0
 14 16  1  0
 16 17  1  0
 17 18  2  0
 18 19  1  0
 19 20  2  0
 20 21  1  0
 21 22  2  0
 22 23  1  0
  5 24  1  0
 24 25  2  0
 25  2  1  0
 22 17  1  0
M  END
>  <molecule_chembl_id>  (353) 
CHEMBL3970532

>  <canonical_smiles>  (353) 
Cc1ccc(C(=O)NCCCCCC(=O)Nc2ccccc2N)cc1

>  <pchembl_value_mean>  (353) 
5.795

>  <document_chembl_id>  (353) 
CHEMBL3886535

$$$$

     RDKit          2D

 37 39  0  0  0  0  0  0  0  0999 V2000
    3.0000    0.0000    0.0000 C   0  0  0  0  0  0  0  0  0  0  0  0
    1.5000    0.0000    0.0000 C   0  0  0  0  0  0  0  0  0  0  0  0
    0.7500   -1.2990    0.0000 C   0  0  0  0  0  0  0  0  0  0  0  0
   -0.7500   -1.2990    0.0000 C   0  0  0  0  0  0  0  0  0  0  0  0
   -1.5000   -2.5981    0.0000 C   0  0  0  0  0  0  0  0  0  0  0  0
   -1.5000    0.0000    0.0000 C   0  0  0  0  0  0  0  0  0  0  0  0
   -0.7500    1.2990    0.0000 C   0  0  0  0  0  0  0  0  0  0  0  0
   -1.5000    2.5981    0.0000 C   0  0  0  0  0  0  0  0  0  0  0  0
   -3.0000    2.5981    0.0000 O   0  0  0  0  0  0  0  0  0  0  0  0
   -0.7500    3.8971    0.0000 N   0  0  0  0  0  0  0  0  0  0  0  0
   -1.5000    5.1962    0.0000 C   0  0  0  0  0  0  0  0  0  0  0  0
   -0.7500    6.4952    0.0000 C   0  0  0  0  0  0  0  0  0  0  0  0
   -1.5000    7.7942    0.0000 C   0  0  0  0  0  0  0  0  0  0  0  0
   -0.7500    9.0933    0.0000 C   0  0  0  0  0  0  0  0  0  0  0  0
   -1.5000   10.3923    0.0000 C   0  0  0  0  0  0  0  0  0  0  0  0
   -0.7500   11.6913    0.0000 C   0  0  0  0  0  0  0  0  0  0  0  0
    0.7500   11.6913    0.0000 O   0  0  0  0  0  0  0  0  0  0  0  0
   -1.5000   12.9904    0.0000 N   0  0  0  0  0  0  0  0  0  0  0  0
   -0.7500   14.2894    0.0000 C   0  0  0  0  0  0  0  0  0  0  0  0
    0.7500   14.2894    0.0000 C   0  0  0  0  0  0  0  0  0  0  0  0
    1.5000   15.5885    0.0000 C   0  0  0  0  0  0  0  0  0  0  0  0
    0.7500   16.8875    0.0000 C   0  0  0  0  0  0  0  0  0  0  0  0
   -0.7500   16.8875    0.0000 C   0  0  0  0  0  0  0  0  0  0  0  0
   -1.5000   15.5885    0.0000 C   0  0  0  0  0  0  0  0  0  0  0  0
   -3.0000   15.5885    0.0000 N   0  0  0  0  0  0  0  0  0  0  0  0
    0.7500    3.8971    0.0000 C   0  0  0  0  0  0  0  0  0  0  0  0
    1.5000    5.1962    0.0000 C   0  0  0  0  0  0  0  0  0  0  0  0
    0.7500    6.4952    0.0000 O   0  0  0  0  0  0  0  0  0  0  0  0
    3.0000    5.1962    0.0000 N   0  0  0  0  0  0  0  0  0  0  0  0
    3.7500    6.4952    0.0000 C   0  0  0  0  0  0  0  0  0  0  0  0
    5.2500    6.4952    0.0000 C   0  0  0  0  0  0  0  0  0  0  0  0
    6.0000    5.1962    0.0000 C   0  0  0  0  0  0  0  0  0  0  0  0
    7.5000    5.1962    0.0000 C   0  0  0  0  0  0  0  0  0  0  0  0
    8.2500    6.4952    0.0000 C   0  0  0  0  0  0  0  0  0  0  0  0
    7.5000    7.7942    0.0000 C   0  0  0  0  0  0  0  0  0  0  0  0
    6.0000    7.7942    0.0000 C   0  0  0  0  0  0  0  0  0  0  0  0
    0.7500    1.2990    0.0000 C   0  0  0  0  0  0  0  0  0  0  0  0
  1  2  1  0
  2  3  2  0
  3  4  1  0
  4  5  1  0
  4  6  2  0
  6  7  1  0
  7  8  1  0
  8  9  2  0
  8 10  1  0
 10 11  1  0
 11 12  1  0
 12 13  1  0
 13 14  1  0
 14 15  1  0
 15 16  1  0
 16 17  2  0
 16 18  1  0
 18 19  1  0
 19 20  2  0
 20 21  1  0
 21 22  2  0
 22 23  1  0
 23 24  2  0
 24 25  1  0
 10 26  1  0
 26 27  1  0
 27 28  2  0
 27 29  1  0
 29 30  1  0
 30 31  1  0
 31 32  2  0
 32 33  1  0
 33 34  2  0
 34 35  1  0
 35 36  2  0
  7 37  2  0
 37  2  1  0
 24 19  1  0
 36 31  1  0
M  END
>  <molecule_chembl_id>  (354) 
CHEMBL4466067

>  <canonical_smiles>  (354) 
Cc1cc(C)cc(C(=O)N(CCCCCC(=O)Nc2ccccc2N)CC(=O)NCc2ccccc2)c1

>  <pchembl_value_mean>  (354) 
5.8

>  <document_chembl_id>  (354) 
CHEMBL4334526

$$$$

     RDKit          2D

 24 25  0  0  0  0  0  0  0  0999 V2000
   10.4688  -10.2562    0.0000 O   0  0  0  0  0  0  0  0  0  0  0  0
    9.2553  -11.1379    0.0000 C   0  0  0  0  0  0  0  0  0  0  0  0
    7.8850  -10.5278    0.0000 C   0  0  0  0  0  0  0  0  0  0  0  0
    7.7282   -9.0360    0.0000 C   0  0  0  0  0  0  0  0  0  0  0  0
    6.3579   -8.4259    0.0000 C   0  0  0  0  0  0  0  0  0  0  0  0
    6.2011   -6.9341    0.0000 C   0  0  0  0  0  0  0  0  0  0  0  0
    4.8308   -6.3240    0.0000 C   0  0  0  0  0  0  0  0  0  0  0  0
    4.6740   -4.8322    0.0000 C   0  0  0  0  0  0  0  0  0  0  0  0
    3.3037   -4.2221    0.0000 C   0  0  0  0  0  0  0  0  0  0  0  0
    2.9918   -2.7549    0.0000 N   0  0  0  0  0  0  0  0  0  0  0  0
    1.5000   -2.5981    0.0000 C   0  0  0  0  0  0  0  0  0  0  0  0
    0.7500   -1.2990    0.0000 C   0  0  0  0  0  0  0  0  0  0  0  0
    1.5000    0.0000    0.0000 C   0  0  0  0  0  0  0  0  0  0  0  0
    0.7500    1.2990    0.0000 C   0  0  0  0  0  0  0  0  0  0  0  0
   -0.7500    1.2990    0.0000 C   0  0  0  0  0  0  0  0  0  0  0  0
   -1.5000    0.0000    0.0000 C   0  0  0  0  0  0  0  0  0  0  0  0
   -0.7500   -1.2990    0.0000 C   0  0  0  0  0  0  0  0  0  0  0  0
   -1.5000   -2.5981    0.0000 Cl  0  0  0  0  0  0  0  0  0  0  0  0
    0.8899   -3.9684    0.0000 N   0  0  0  0  0  0  0  0  0  0  0  0
    2.0046   -4.9721    0.0000 O   0  0  0  0  0  0  0  0  0  0  0  0
    9.4121  -12.6296    0.0000 C   0  0  0  0  0  0  0  0  0  0  0  0
    9.5689  -14.1214    0.0000 F   0  0  0  0  0  0  0  0  0  0  0  0
   10.9039  -12.4728    0.0000 F   0  0  0  0  0  0  0  0  0  0  0  0
    7.9203  -12.7864    0.0000 F   0  0  0  0  0  0  0  0  0  0  0  0
  1  2  2  0
  2  3  1  0
  3  4  1  0
  4  5  1  0
  5  6  1  0
  6  7  1  0
  7  8  1  0
  8  9  1  0
  9 10  2  0
 10 11  1  0
 11 12  1  0
 12 13  2  0
 13 14  1  0
 14 15  2  0
 15 16  1  0
 16 17  2  0
 17 18  1  0
 11 19  2  0
 19 20  1  0
  2 21  1  0
 21 22  1  0
 21 23  1  0
 21 24  1  0
 20  9  1  0
 17 12  1  0
M  END
>  <molecule_chembl_id>  (355) 
CHEMBL3585355

>  <canonical_smiles>  (355) 
O=C(CCCCCCc1nc(-c2ccccc2Cl)no1)C(F)(F)F

>  <pchembl_value_mean>  (355) 
5.8

>  <document_chembl_id>  (355) 
CHEMBL3585316

$$$$

     RDKit          2D

 22 24  0  0  0  0  0  0  0  0999 V2000
    3.7500    1.2990    0.0000 O   0  0  0  0  0  0  0  0  0  0  0  0
    3.0000    0.0000    0.0000 C   0  0  0  0  0  0  0  0  0  0  0  0
    3.7500   -1.2990    0.0000 N   0  0  0  0  0  0  0  0  0  0  0  0
    5.2500   -1.2990    0.0000 O   0  0  0  0  0  0  0  0  0  0  0  0
    1.5000    0.0000    0.0000 C   0  0  0  0  0  0  0  0  0  0  0  0
    0.7500   -1.2990    0.0000 C   0  0  0  0  0  0  0  0  0  0  0  0
   -0.7500   -1.2990    0.0000 N   0  0  0  0  0  0  0  0  0  0  0  0
   -1.5000    0.0000    0.0000 C   0  0  0  0  0  0  0  0  0  0  0  0
   -3.0000    0.0000    0.0000 N   0  0  0  0  0  0  0  0  0  0  0  0
   -3.7500    1.2990    0.0000 C   0  0  0  0  0  0  0  0  0  0  0  0
   -4.8991    0.3349    0.0000 C   0  0  0  0  0  0  0  0  0  0  0  0
   -6.3545    0.6977    0.0000 C   0  0  0  0  0  0  0  0  0  0  0  0
   -7.1494   -0.5743    0.0000 C   0  0  0  0  0  0  0  0  0  0  0  0
   -6.1852   -1.7234    0.0000 C   0  0  0  0  0  0  0  0  0  0  0  0
   -4.7944   -1.1615    0.0000 S   0  0  0  0  0  0  0  0  0  0  0  0
   -2.3405    1.8121    0.0000 C   0  0  0  0  0  0  0  0  0  0  0  0
   -2.0800    3.2893    0.0000 C   0  0  0  0  0  0  0  0  0  0  0  0
   -3.2291    4.2535    0.0000 C   0  0  0  0  0  0  0  0  0  0  0  0
   -4.6386    3.7404    0.0000 C   0  0  0  0  0  0  0  0  0  0  0  0
   -4.8991    2.2632    0.0000 C   0  0  0  0  0  0  0  0  0  0  0  0
   -0.7500    1.2990    0.0000 N   0  0  0  0  0  0  0  0  0  0  0  0
    0.7500    1.2990    0.0000 C   0  0  0  0  0  0  0  0  0  0  0  0
  1  2  2  0
  2  3  1  0
  3  4  1  0
  2  5  1  0
  5  6  2  0
  6  7  1  0
  7  8  2  0
  8  9  1  0
  9 10  1  0
 10 11  1  0
 11 12  2  0
 12 13  1  0
 13 14  2  0
 14 15  1  0
 10 16  1  0
 16 17  1  0
 17 18  1  0
 18 19  1  0
 19 20  1  0
  8 21  1  0
 21 22  2  0
 22  5  1  0
 20 10  1  0
 15 11  1  0
M  END
>  <molecule_chembl_id>  (356) 
CHEMBL3656023

>  <canonical_smiles>  (356) 
O=C(NO)c1cnc(NC2(c3cccs3)CCCCC2)nc1

>  <pchembl_value_mean>  (356) 
5.8

>  <document_chembl_id>  (356) 
CHEMBL3639071

$$$$

     RDKit          2D

 24 25  0  0  0  0  0  0  0  0999 V2000
    3.0000    0.0000    0.0000 N   0  0  0  0  0  0  0  0  0  0  0  0
    1.5000    0.0000    0.0000 C   0  0  0  0  0  0  0  0  0  0  0  0
    0.7500   -1.2990    0.0000 C   0  0  0  0  0  0  0  0  0  0  0  0
   -0.7500   -1.2990    0.0000 C   0  0  0  0  0  0  0  0  0  0  0  0
   -1.5000    0.0000    0.0000 C   0  0  0  0  0  0  0  0  0  0  0  0
   -0.7500    1.2990    0.0000 C   0  0  0  0  0  0  0  0  0  0  0  0
    0.7500    1.2990    0.0000 C   0  0  0  0  0  0  0  0  0  0  0  0
    1.5000    2.5981    0.0000 N   0  0  0  0  0  0  0  0  0  0  0  0
    0.7500    3.8971    0.0000 C   0  0  0  0  0  0  0  0  0  0  0  0
   -0.7500    3.8971    0.0000 O   0  0  0  0  0  0  0  0  0  0  0  0
    1.5000    5.1962    0.0000 C   0  0  0  0  0  0  0  0  0  0  0  0
    0.7500    6.4952    0.0000 C   0  0  0  0  0  0  0  0  0  0  0  0
    1.5000    7.7942    0.0000 C   0  0  0  0  0  0  0  0  0  0  0  0
    0.7500    9.0933    0.0000 C   0  0  0  0  0  0  0  0  0  0  0  0
    1.5000   10.3923    0.0000 C   0  0  0  0  0  0  0  0  0  0  0  0
    0.7500   11.6913    0.0000 C   0  0  0  0  0  0  0  0  0  0  0  0
   -0.7500   11.6913    0.0000 O   0  0  0  0  0  0  0  0  0  0  0  0
    1.5000   12.9904    0.0000 N   0  0  0  0  0  0  0  0  0  0  0  0
    0.7500   14.2894    0.0000 C   0  0  0  0  0  0  0  0  0  0  0  0
    1.5000   15.5885    0.0000 C   0  0  0  0  0  0  0  0  0  0  0  0
    0.7500   16.8875    0.0000 C   0  0  0  0  0  0  0  0  0  0  0  0
   -0.7500   16.8875    0.0000 C   0  0  0  0  0  0  0  0  0  0  0  0
   -1.5000   15.5885    0.0000 C   0  0  0  0  0  0  0  0  0  0  0  0
   -0.7500   14.2894    0.0000 C   0  0  0  0  0  0  0  0  0  0  0  0
  1  2  1  0
  2  3  2  0
  3  4  1  0
  4  5  2  0
  5  6  1  0
  6  7  2  0
  7  8  1  0
  8  9  1  0
  9 10  2  0
  9 11  1  0
 11 12  1  0
 12 13  1  0
 13 14  1  0
 14 15  1  0
 15 16  1  0
 16 17  2  0
 16 18  1  0
 18 19  1  0
 19 20  2  0
 20 21  1  0
 21 22  2  0
 22 23  1  0
 23 24  2  0
  7  2  1  0
 24 19  1  0
M  END
>  <molecule_chembl_id>  (357) 
CHEMBL277805

>  <canonical_smiles>  (357) 
Nc1ccccc1NC(=O)CCCCCC(=O)Nc1ccccc1

>  <pchembl_value_mean>  (357) 
5.8

>  <document_chembl_id>  (357) 
CHEMBL4033774

$$$$

     RDKit          2D

 25 28  0  0  0  0  0  0  0  0999 V2000
    7.5000   -7.7942    0.0000 O   0  0  0  0  0  0  0  0  0  0  0  0
    6.0000   -7.7942    0.0000 C   0  0  0  0  0  0  0  0  0  0  0  0
    5.2500   -9.0933    0.0000 N   0  0  0  0  0  0  0  0  0  0  0  0
    6.0000  -10.3923    0.0000 O   0  0  0  0  0  0  0  0  0  0  0  0
    5.2500   -6.4952    0.0000 C   0  0  0  0  0  0  0  0  0  0  0  0
    3.7500   -6.4952    0.0000 C   0  0  0  0  0  0  0  0  0  0  0  0
    3.0000   -5.1962    0.0000 C   0  0  0  0  0  0  0  0  0  0  0  0
    3.7500   -3.8971    0.0000 C   0  0  0  0  0  0  0  0  0  0  0  0
    3.0000   -2.5981    0.0000 N   0  0  0  0  0  0  0  0  0  0  0  0
    1.5000   -2.5981    0.0000 C   0  0  0  0  0  0  0  0  0  0  0  0
    0.7500   -1.2990    0.0000 C   0  0  0  0  0  0  0  0  0  0  0  0
    1.5000    0.0000    0.0000 C   0  0  0  0  0  0  0  0  0  0  0  0
    0.7500    1.2990    0.0000 C   0  0  0  0  0  0  0  0  0  0  0  0
   -0.7500    1.2990    0.0000 C   0  0  0  0  0  0  0  0  0  0  0  0
   -1.5000    0.0000    0.0000 C   0  0  0  0  0  0  0  0  0  0  0  0
   -0.7500   -1.2990    0.0000 C   0  0  0  0  0  0  0  0  0  0  0  0
   -1.5000   -2.5981    0.0000 N   0  0  0  0  0  0  0  0  0  0  0  0
   -0.7500   -3.8971    0.0000 C   0  0  0  0  0  0  0  0  0  0  0  0
   -1.5000   -5.1962    0.0000 C   0  0  0  0  0  0  0  0  0  0  0  0
   -0.7500   -6.4952    0.0000 C   0  0  0  0  0  0  0  0  0  0  0  0
    0.7500   -6.4952    0.0000 C   0  0  0  0  0  0  0  0  0  0  0  0
    1.5000   -5.1962    0.0000 C   0  0  0  0  0  0  0  0  0  0  0  0
    0.7500   -3.8971    0.0000 C   0  0  0  0  0  0  0  0  0  0  0  0
    5.2500   -3.8971    0.0000 C   0  0  0  0  0  0  0  0  0  0  0  0
    6.0000   -5.1962    0.0000 C   0  0  0  0  0  0  0  0  0  0  0  0
  1  2  2  0
  2  3  1  0
  3  4  1  0
  2  5  1  0
  5  6  2  0
  6  7  1  0
  7  8  2  0
  8  9  1  0
  9 10  1  0
 10 11  1  0
 11 12  2  0
 12 13  1  0
 13 14  2  0
 14 15  1  0
 15 16  2  0
 16 17  1  0
 17 18  2  0
 18 19  1  0
 19 20  2  0
 20 21  1  0
 21 22  2  0
 22 23  1  0
  8 24  1  0
 24 25  2  0
 25  5  1  0
 23 10  2  0
 16 11  1  0
 23 18  1  0
M  END
>  <molecule_chembl_id>  (358) 
CHEMBL4762873

>  <canonical_smiles>  (358) 
O=C(NO)c1ccc(Nc2c3ccccc3nc3ccccc23)cc1

>  <pchembl_value_mean>  (358) 
5.8

>  <document_chembl_id>  (358) 
CHEMBL4680220

$$$$

     RDKit          2D

 38 41  0  0  0  0  0  0  0  0999 V2000
   14.7990   -8.5442    0.0000 C   0  0  0  0  0  0  0  0  0  0  0  0
   13.2990   -8.5442    0.0000 C   0  0  0  0  0  0  0  0  0  0  0  0
   12.5490   -7.2452    0.0000 C   0  0  0  0  0  0  0  0  0  0  0  0
   13.2990   -5.9462    0.0000 O   0  0  0  0  0  0  0  0  0  0  0  0
   11.0490   -7.2452    0.0000 C   0  0  0  0  0  0  0  0  0  0  0  0
   10.2990   -5.9462    0.0000 C   0  0  0  0  0  0  0  0  0  0  0  0
    8.7990   -5.9462    0.0000 C   0  0  0  0  0  0  0  0  0  0  0  0
    8.0490   -4.6471    0.0000 C   0  0  0  0  0  0  0  0  0  0  0  0
    6.5490   -4.6471    0.0000 C   0  0  0  0  0  0  0  0  0  0  0  0
    5.7990   -3.3481    0.0000 C   0  0  0  0  0  0  0  0  0  0  0  0
    4.2990   -3.3481    0.0000 N   0  0  0  0  0  0  0  0  0  0  0  0
    3.5490   -2.0490    0.0000 C   0  0  0  0  0  0  0  0  0  0  0  0
    4.2990   -0.7500    0.0000 O   0  0  0  0  0  0  0  0  0  0  0  0
    2.0490   -2.0490    0.0000 C   0  0  0  0  0  0  0  0  0  0  0  0
    0.7500   -2.7990    0.0000 C   0  0  0  0  0  0  0  0  0  0  0  0
    0.7500   -1.2990    0.0000 C   0  0  0  0  0  0  0  0  0  0  0  0
    1.5000    0.0000    0.0000 C   0  0  0  0  0  0  0  0  0  0  0  0
    0.7500    1.2990    0.0000 C   0  0  0  0  0  0  0  0  0  0  0  0
   -0.7500    1.2990    0.0000 N   0  0  0  0  0  0  0  0  0  0  0  0
   -1.5000    2.5981    0.0000 C   0  0  0  0  0  0  0  0  0  0  0  0
   -0.7500    3.8971    0.0000 C   0  0  0  0  0  0  0  0  0  0  0  0
   -1.5000    0.0000    0.0000 C   0  0  0  0  0  0  0  0  0  0  0  0
   -0.7500   -1.2990    0.0000 C   0  0  0  0  0  0  0  0  0  0  0  0
    6.5490   -2.0490    0.0000 C   0  0  0  0  0  0  0  0  0  0  0  0
    5.9389   -0.6787    0.0000 N   0  0  0  0  0  0  0  0  0  0  0  0
    7.0537    0.3250    0.0000 C   0  0  0  0  0  0  0  0  0  0  0  0
    8.3527   -0.4250    0.0000 C   0  0  0  0  0  0  0  0  0  0  0  0
    9.7230    0.1851    0.0000 C   0  0  0  0  0  0  0  0  0  0  0  0
   10.9365   -0.6966    0.0000 C   0  0  0  0  0  0  0  0  0  0  0  0
   10.7797   -2.1884    0.0000 O   0  0  0  0  0  0  0  0  0  0  0  0
   11.9933   -3.0701    0.0000 C   0  0  0  0  0  0  0  0  0  0  0  0
   12.3069   -0.0865    0.0000 C   0  0  0  0  0  0  0  0  0  0  0  0
   12.4636    1.4053    0.0000 C   0  0  0  0  0  0  0  0  0  0  0  0
   11.2501    2.2870    0.0000 C   0  0  0  0  0  0  0  0  0  0  0  0
   11.4069    3.7788    0.0000 F   0  0  0  0  0  0  0  0  0  0  0  0
    9.8798    1.6769    0.0000 C   0  0  0  0  0  0  0  0  0  0  0  0
    8.6663    2.5585    0.0000 F   0  0  0  0  0  0  0  0  0  0  0  0
    8.0408   -1.8922    0.0000 N   0  0  0  0  0  0  0  0  0  0  0  0
  1  2  1  0
  2  3  1  0
  3  4  2  0
  3  5  1  0
  5  6  1  0
  6  7  1  0
  7  8  1  0
  8  9  1  0
  9 10  1  0
 10 11  1  0
 11 12  1  0
 12 13  2  0
 12 14  1  0
 14 15  1  0
 15 16  1  0
 16 17  1  0
 17 18  1  0
 18 19  1  0
 19 20  1  0
 20 21  1  0
 19 22  1  0
 22 23  1  0
 10 24  1  0
 24 25  2  0
 25 26  1  0
 26 27  2  0
 27 28  1  0
 28 29  2  0
 29 30  1  0
 30 31  1  0
 29 32  1  0
 32 33  2  0
 33 34  1  0
 34 35  1  0
 34 36  2  0
 36 37  1  0
 27 38  1  0
 16 14  1  0
 38 24  1  0
 23 16  1  0
 36 28  1  0
M  END
>  <molecule_chembl_id>  (359) 
CHEMBL4799996

>  <canonical_smiles>  (359) 
CCC(=O)CCCCCC(NC(=O)C1CC12CCN(CC)CC2)c1ncc(-c2c(OC)ccc(F)c2F)[nH]1

>  <pchembl_value_mean>  (359) 
5.81

>  <document_chembl_id>  (359) 
CHEMBL4680369

$$$$

     RDKit          2D

 23 24  0  0  0  0  0  0  0  0999 V2000
   -0.7500  -11.6913    0.0000 O   0  0  0  0  0  0  0  0  0  0  0  0
    0.7500  -11.6913    0.0000 C   0  0  0  0  0  0  0  0  0  0  0  0
    1.5000  -10.3923    0.0000 C   0  0  0  0  0  0  0  0  0  0  0  0
    0.7500   -9.0933    0.0000 C   0  0  0  0  0  0  0  0  0  0  0  0
    1.5000   -7.7942    0.0000 C   0  0  0  0  0  0  0  0  0  0  0  0
    0.7500   -6.4952    0.0000 C   0  0  0  0  0  0  0  0  0  0  0  0
    1.5000   -5.1962    0.0000 C   0  0  0  0  0  0  0  0  0  0  0  0
    0.7500   -3.8971    0.0000 C   0  0  0  0  0  0  0  0  0  0  0  0
    1.5000   -2.5981    0.0000 N   0  0  0  0  0  0  0  0  0  0  0  0
    0.7500   -1.2990    0.0000 C   0  0  0  0  0  0  0  0  0  0  0  0
    1.5000    0.0000    0.0000 C   0  0  0  0  0  0  0  0  0  0  0  0
    0.7500    1.2990    0.0000 C   0  0  0  0  0  0  0  0  0  0  0  0
   -0.7500    1.2990    0.0000 C   0  0  0  0  0  0  0  0  0  0  0  0
   -1.5000    0.0000    0.0000 C   0  0  0  0  0  0  0  0  0  0  0  0
   -0.7500   -1.2990    0.0000 N   0  0  0  0  0  0  0  0  0  0  0  0
    3.0000   -2.5981    0.0000 C   0  0  0  0  0  0  0  0  0  0  0  0
    3.7500   -3.8971    0.0000 C   0  0  0  0  0  0  0  0  0  0  0  0
    5.2500   -3.8971    0.0000 C   0  0  0  0  0  0  0  0  0  0  0  0
    6.0000   -2.5981    0.0000 C   0  0  0  0  0  0  0  0  0  0  0  0
    5.2500   -1.2990    0.0000 C   0  0  0  0  0  0  0  0  0  0  0  0
    3.7500   -1.2990    0.0000 N   0  0  0  0  0  0  0  0  0  0  0  0
    1.5000  -12.9904    0.0000 N   0  0  0  0  0  0  0  0  0  0  0  0
    0.7500  -14.2894    0.0000 O   0  0  0  0  0  0  0  0  0  0  0  0
  1  2  2  0
  2  3  1  0
  3  4  1  0
  4  5  1  0
  5  6  1  0
  6  7  1  0
  7  8  1  0
  8  9  1  0
  9 10  1  0
 10 11  2  0
 11 12  1  0
 12 13  2  0
 13 14  1  0
 14 15  2  0
  9 16  1  0
 16 17  2  0
 17 18  1  0
 18 19  2  0
 19 20  1  0
 20 21  2  0
  2 22  1  0
 22 23  1  0
 15 10  1  0
 21 16  1  0
M  END
>  <molecule_chembl_id>  (360) 
CHEMBL3675757

>  <canonical_smiles>  (360) 
O=C(CCCCCCN(c1ccccn1)c1ccccn1)NO

>  <pchembl_value_mean>  (360) 
5.81

>  <document_chembl_id>  (360) 
CHEMBL3639343

$$$$

     RDKit          2D

 34 38  0  0  0  0  0  0  0  0999 V2000
    6.0000   -7.7942    0.0000 C   0  0  0  0  0  0  0  0  0  0  0  0
    5.2500   -6.4952    0.0000 O   0  0  0  0  0  0  0  0  0  0  0  0
    3.7500   -6.4952    0.0000 C   0  0  0  0  0  0  0  0  0  0  0  0
    3.0000   -5.1962    0.0000 C   0  0  0  0  0  0  0  0  0  0  0  0
    1.5000   -5.1962    0.0000 O   0  0  0  0  0  0  0  0  0  0  0  0
    0.7500   -3.8971    0.0000 C   0  0  0  0  0  0  0  0  0  0  0  0
    1.5000   -2.5981    0.0000 C   0  0  0  0  0  0  0  0  0  0  0  0
    0.7500   -1.2990    0.0000 C   0  0  0  0  0  0  0  0  0  0  0  0
    1.5000    0.0000    0.0000 N   0  0  0  0  0  0  0  0  0  0  0  0
    0.7500    1.2990    0.0000 C   0  0  0  0  0  0  0  0  0  0  0  0
   -0.7500    1.2990    0.0000 C   0  0  0  0  0  0  0  0  0  0  0  0
   -1.5000    2.5981    0.0000 C   0  0  0  0  0  0  0  0  0  0  0  0
   -3.0000    2.5981    0.0000 O   0  0  0  0  0  0  0  0  0  0  0  0
   -0.7500    3.8971    0.0000 N   0  0  0  0  0  0  0  0  0  0  0  0
   -1.5000    5.1962    0.0000 C   0  0  0  0  0  0  0  0  0  0  0  0
   -0.7500    6.4952    0.0000 C   0  0  0  0  0  0  0  0  0  0  0  0
   -1.5000    7.7942    0.0000 C   0  0  0  0  0  0  0  0  0  0  0  0
   -0.7500    9.0933    0.0000 C   0  0  0  0  0  0  0  0  0  0  0  0
    0.7500    9.0933    0.0000 C   0  0  0  0  0  0  0  0  0  0  0  0
    1.5000   10.3923    0.0000 C   0  0  0  0  0  0  0  0  0  0  0  0
    0.7500   11.6913    0.0000 C   0  0  0  0  0  0  0  0  0  0  0  0
   -0.7500   11.6913    0.0000 C   0  0  0  0  0  0  0  0  0  0  0  0
   -1.5000   10.3923    0.0000 C   0  0  0  0  0  0  0  0  0  0  0  0
   -3.0000    7.7942    0.0000 C   0  0  0  0  0  0  0  0  0  0  0  0
   -3.7500    6.4952    0.0000 C   0  0  0  0  0  0  0  0  0  0  0  0
   -3.0000    5.1962    0.0000 C   0  0  0  0  0  0  0  0  0  0  0  0
   -3.7500    3.8971    0.0000 N   0  0  0  0  0  0  0  0  0  0  0  0
   -1.5000    0.0000    0.0000 C   0  0  0  0  0  0  0  0  0  0  0  0
   -0.7500   -1.2990    0.0000 C   0  0  0  0  0  0  0  0  0  0  0  0
   -1.5000   -2.5981    0.0000 C   0  0  0  0  0  0  0  0  0  0  0  0
   -0.7500   -3.8971    0.0000 C   0  0  0  0  0  0  0  0  0  0  0  0
   -1.5000   -5.1962    0.0000 C   0  0  0  0  0  0  0  0  0  0  0  0
   -1.5000   -6.6962    0.0000 C   0  0  0  0  0  0  0  0  0  0  0  0
   -2.7990   -5.9462    0.0000 C   0  0  0  0  0  0  0  0  0  0  0  0
  1  2  1  0
  2  3  1  0
  3  4  1  0
  4  5  1  0
  5  6  1  0
  6  7  2  0
  7  8  1  0
  8  9  2  0
  9 10  1  0
 10 11  2  0
 11 12  1  0
 12 13  2  0
 12 14  1  0
 14 15  1  0
 15 16  2  0
 16 17  1  0
 17 18  1  0
 18 19  2  0
 19 20  1  0
 20 21  2  0
 21 22  1  0
 22 23  2  0
 17 24  2  0
 24 25  1  0
 25 26  2  0
 26 27  1  0
 11 28  1  0
 28 29  2  0
 29 30  1  0
 30 31  2  0
 31 32  1  0
 32 33  1  0
 33 34  1  0
 31  6  1  0
 34 32  1  0
 29  8  1  0
 26 15  1  0
 23 18  1  0
M  END
>  <molecule_chembl_id>  (361) 
CHEMBL3973790

>  <canonical_smiles>  (361) 
COCCOc1cc2ncc(C(=O)Nc3cc(-c4ccccc4)ccc3N)cc2cc1C1CC1

>  <pchembl_value_mean>  (361) 
5.81

>  <document_chembl_id>  (361) 
CHEMBL3886267

$$$$

     RDKit          2D

 28 29  0  0  0  0  0  0  0  0999 V2000
   -9.3705    0.6111    0.0000 O   0  0  0  0  0  0  0  0  0  0  0  0
  -10.1205   -0.6879    0.0000 C   0  0  0  0  0  0  0  0  0  0  0  0
   -9.3705   -1.9869    0.0000 C   0  0  0  0  0  0  0  0  0  0  0  0
   -7.8705   -1.9869    0.0000 C   0  0  0  0  0  0  0  0  0  0  0  0
   -7.1205   -3.2860    0.0000 C   0  0  0  0  0  0  0  0  0  0  0  0
   -5.6205   -3.2860    0.0000 C   0  0  0  0  0  0  0  0  0  0  0  0
   -4.8705   -4.5850    0.0000 C   0  0  0  0  0  0  0  0  0  0  0  0
   -3.3705   -4.5850    0.0000 C   0  0  0  0  0  0  0  0  0  0  0  0
   -3.0367   -6.0474    0.0000 O   0  0  0  0  0  0  0  0  0  0  0  0
   -2.1015   -7.2201    0.0000 C   0  0  0  0  0  0  0  0  0  0  0  0
   -0.7500   -7.8710    0.0000 C   0  0  0  0  0  0  0  0  0  0  0  0
    0.7500   -7.8710    0.0000 C   0  0  0  0  0  0  0  0  0  0  0  0
    2.1015   -7.2201    0.0000 C   0  0  0  0  0  0  0  0  0  0  0  0
    3.0367   -6.0474    0.0000 C   0  0  0  0  0  0  0  0  0  0  0  0
    3.3705   -4.5850    0.0000 C   0  0  0  0  0  0  0  0  0  0  0  0
    3.0367   -3.1226    0.0000 C   0  0  0  0  0  0  0  0  0  0  0  0
    2.1015   -1.9499    0.0000 O   0  0  0  0  0  0  0  0  0  0  0  0
    0.7500   -1.2990    0.0000 C   0  0  0  0  0  0  0  0  0  0  0  0
    1.5000    0.0000    0.0000 C   0  0  0  0  0  0  0  0  0  0  0  0
    0.7500    1.2990    0.0000 C   0  0  0  0  0  0  0  0  0  0  0  0
   -0.7500    1.2990    0.0000 C   0  0  0  0  0  0  0  0  0  0  0  0
   -1.5000    0.0000    0.0000 C   0  0  0  0  0  0  0  0  0  0  0  0
   -0.7500   -1.2990    0.0000 C   0  0  0  0  0  0  0  0  0  0  0  0
   -2.1015   -1.9499    0.0000 N   0  0  0  0  0  0  0  0  0  0  0  0
   -3.0367   -3.1226    0.0000 C   0  0  0  0  0  0  0  0  0  0  0  0
   -4.3881   -2.4718    0.0000 O   0  0  0  0  0  0  0  0  0  0  0  0
  -11.6205   -0.6879    0.0000 N   0  0  0  0  0  0  0  0  0  0  0  0
  -12.3705    0.6111    0.0000 O   0  0  0  0  0  0  0  0  0  0  0  0
  1  2  2  0
  2  3  1  0
  3  4  1  0
  4  5  1  0
  5  6  1  0
  6  7  1  0
  7  8  1  0
  8  9  1  0
  9 10  1  0
 10 11  1  0
 11 12  1  0
 12 13  1  0
 13 14  1  0
 14 15  1  0
 15 16  1  0
 16 17  1  0
 17 18  1  0
 18 19  2  0
 19 20  1  0
 20 21  2  0
 21 22  1  0
 22 23  2  0
 23 24  1  0
 24 25  1  0
 25 26  2  0
  2 27  1  0
 27 28  1  0
 25  8  1  0
 23 18  1  0
M  END
>  <molecule_chembl_id>  (362) 
CHEMBL1631912

>  <canonical_smiles>  (362) 
O=C(CCCCCC1OCCCCCCCOc2ccccc2NC1=O)NO

>  <pchembl_value_mean>  (362) 
5.81

>  <document_chembl_id>  (362) 
CHEMBL1629537

$$$$

     RDKit          2D

 35 37  0  0  0  0  0  0  0  0999 V2000
    6.8839   -1.2990    0.0000 C   0  0  0  0  0  0  0  0  0  0  0  0
    5.3839   -1.2990    0.0000 C   0  0  0  0  0  0  0  0  0  0  0  0
    4.6339    0.0000    0.0000 C   0  0  0  0  0  0  0  0  0  0  0  0
    3.1339    0.0000    0.0000 C   0  0  0  0  0  0  0  0  0  0  0  0
    2.7750    1.4564    0.0000 N   0  0  0  0  0  0  0  0  0  0  0  0
    1.7803    2.5792    0.0000 C   0  0  0  0  0  0  0  0  0  0  0  0
    2.6324    3.8137    0.0000 O   0  0  0  0  0  0  0  0  0  0  0  0
    0.3778    3.1111    0.0000 C   0  0  0  0  0  0  0  0  0  0  0  0
    0.5586    4.6001    0.0000 C   0  0  0  0  0  0  0  0  0  0  0  0
   -1.1113    2.9303    0.0000 N   0  0  0  0  0  0  0  0  0  0  0  0
   -2.3458    2.0782    0.0000 C   0  0  0  0  0  0  0  0  0  0  0  0
   -3.4686    3.0729    0.0000 O   0  0  0  0  0  0  0  0  0  0  0  0
   -3.0429    0.7500    0.0000 C   0  0  0  0  0  0  0  0  0  0  0  0
   -3.0429   -0.7500    0.0000 C   0  0  0  0  0  0  0  0  0  0  0  0
   -4.4993   -1.1090    0.0000 C   0  0  0  0  0  0  0  0  0  0  0  0
   -5.5384   -0.0272    0.0000 C   0  0  0  0  0  0  0  0  0  0  0  0
   -6.9948   -0.3861    0.0000 C   0  0  0  0  0  0  0  0  0  0  0  0
   -5.1210    1.4136    0.0000 C   0  0  0  0  0  0  0  0  0  0  0  0
   -2.3458   -2.0782    0.0000 N   0  0  0  0  0  0  0  0  0  0  0  0
   -1.1113   -2.9303    0.0000 C   0  0  0  0  0  0  0  0  0  0  0  0
   -1.6432   -4.3328    0.0000 O   0  0  0  0  0  0  0  0  0  0  0  0
    0.3778   -3.1111    0.0000 C   0  0  0  0  0  0  0  0  0  0  0  0
    0.5586   -4.6001    0.0000 C   0  0  0  0  0  0  0  0  0  0  0  0
   -0.6406   -5.5013    0.0000 C   0  0  0  0  0  0  0  0  0  0  0  0
   -2.0745   -5.0608    0.0000 C   0  0  0  0  0  0  0  0  0  0  0  0
   -2.9365   -6.2884    0.0000 N   0  0  0  0  0  0  0  0  0  0  0  0
   -2.0354   -7.4875    0.0000 C   0  0  0  0  0  0  0  0  0  0  0  0
   -2.3236   -8.9596    0.0000 C   0  0  0  0  0  0  0  0  0  0  0  0
   -1.1928   -9.9452    0.0000 C   0  0  0  0  0  0  0  0  0  0  0  0
    0.2261   -9.4587    0.0000 C   0  0  0  0  0  0  0  0  0  0  0  0
    0.5143   -7.9867    0.0000 C   0  0  0  0  0  0  0  0  0  0  0  0
   -0.6164   -7.0011    0.0000 C   0  0  0  0  0  0  0  0  0  0  0  0
    1.7803   -2.5792    0.0000 N   0  0  0  0  0  0  0  0  0  0  0  0
    2.7750   -1.4564    0.0000 C   0  0  0  0  0  0  0  0  0  0  0  0
    4.1031   -2.1535    0.0000 O   0  0  0  0  0  0  0  0  0  0  0  0
  1  2  1  0
  2  3  1  0
  3  4  1  0
  4  5  1  0
  5  6  1  0
  6  7  2  0
  6  8  1  0
  8  9  1  0
  8 10  1  0
 10 11  1  0
 11 12  2  0
 11 13  1  0
 13 14  1  0
 14 15  1  0
 15 16  1  0
 16 17  1  0
 16 18  1  0
 14 19  1  0
 19 20  1  0
 20 21  2  0
 20 22  1  0
 22 23  1  0
 23 24  1  0
 24 25  2  0
 25 26  1  0
 26 27  1  0
 27 28  2  0
 28 29  1  0
 29 30  2  0
 30 31  1  0
 31 32  2  0
 22 33  1  0
 33 34  1  0
 34 35  2  0
 34  4  1  0
 32 24  1  0
 32 27  1  0
M  END
>  <molecule_chembl_id>  (363) 
CHEMBL2063395

>  <canonical_smiles>  (363) 
CCCC1NC(=O)C(C)NC(=O)CC(CC(C)C)NC(=O)C(Cc2c[nH]c3ccccc23)NC1=O

>  <pchembl_value_mean>  (363) 
5.81

>  <document_chembl_id>  (363) 
CHEMBL2062402

$$$$

     RDKit          2D

 27 30  0  0  0  0  0  0  0  0999 V2000
    1.2135   -4.4890    0.0000 C   0  0  0  0  0  0  0  0  0  0  0  0
   -0.0000   -3.6073    0.0000 C   0  0  0  0  0  0  0  0  0  0  0  0
    1.2135   -2.7256    0.0000 N   0  0  0  0  0  0  0  0  0  0  0  0
    0.7500   -1.2990    0.0000 C   0  0  0  0  0  0  0  0  0  0  0  0
    1.5000    0.0000    0.0000 C   0  0  0  0  0  0  0  0  0  0  0  0
    0.7500    1.2990    0.0000 C   0  0  0  0  0  0  0  0  0  0  0  0
   -0.7500    1.2990    0.0000 C   0  0  0  0  0  0  0  0  0  0  0  0
   -1.5000    0.0000    0.0000 C   0  0  0  0  0  0  0  0  0  0  0  0
   -0.7500   -1.2990    0.0000 C   0  0  0  0  0  0  0  0  0  0  0  0
   -1.2135   -2.7256    0.0000 C   0  0  0  0  0  0  0  0  0  0  0  0
   -2.4271   -1.8439    0.0000 O   0  0  0  0  0  0  0  0  0  0  0  0
   -2.4271   -3.6073    0.0000 C   0  0  0  0  0  0  0  0  0  0  0  0
   -1.9635   -5.0339    0.0000 C   0  0  0  0  0  0  0  0  0  0  0  0
   -0.4635   -5.0339    0.0000 N   0  0  0  0  0  0  0  0  0  0  0  0
    0.4182   -6.2474    0.0000 C   0  0  0  0  0  0  0  0  0  0  0  0
   -0.1920   -7.6177    0.0000 C   0  0  0  0  0  0  0  0  0  0  0  0
   -1.6837   -7.7745    0.0000 C   0  0  0  0  0  0  0  0  0  0  0  0
   -2.2938   -9.1448    0.0000 C   0  0  0  0  0  0  0  0  0  0  0  0
   -1.4122  -10.3584    0.0000 C   0  0  0  0  0  0  0  0  0  0  0  0
   -2.0223  -11.7287    0.0000 C   0  0  0  0  0  0  0  0  0  0  0  0
   -3.5141  -11.8855    0.0000 C   0  0  0  0  0  0  0  0  0  0  0  0
   -4.1242  -13.2558    0.0000 C   0  0  0  0  0  0  0  0  0  0  0  0
   -3.2425  -14.4693    0.0000 O   0  0  0  0  0  0  0  0  0  0  0  0
   -5.6159  -13.4126    0.0000 N   0  0  0  0  0  0  0  0  0  0  0  0
   -6.2260  -14.7829    0.0000 O   0  0  0  0  0  0  0  0  0  0  0  0
    0.0796  -10.2016    0.0000 C   0  0  0  0  0  0  0  0  0  0  0  0
    0.6897   -8.8313    0.0000 C   0  0  0  0  0  0  0  0  0  0  0  0
  1  2  1  0
  2  3  1  0
  3  4  1  0
  4  5  2  0
  5  6  1  0
  6  7  2  0
  7  8  1  0
  8  9  2  0
  9 10  1  0
 10 11  1  0
 10 12  1  0
 12 13  1  0
 13 14  1  0
 14 15  1  0
 15 16  1  0
 16 17  2  0
 17 18  1  0
 18 19  2  0
 19 20  1  0
 20 21  2  3
 21 22  1  0
 22 23  2  0
 22 24  1  0
 24 25  1  0
 19 26  1  0
 26 27  2  0
 10  2  1  0
 27 16  1  0
 14  2  1  0
  9  4  1  0
M  END
>  <molecule_chembl_id>  (364) 
CHEMBL3526395

>  <canonical_smiles>  (364) 
CC12Nc3ccccc3C1(O)CCN2Cc1ccc(C=CC(=O)NO)cc1

>  <pchembl_value_mean>  (364) 
5.82

>  <document_chembl_id>  (364) 
CHEMBL3526051

$$$$

     RDKit          2D

 20 21  0  0  0  0  0  0  0  0999 V2000
    2.0490   -4.6471    0.0000 C   0  0  0  0  0  0  0  0  0  0  0  0
    0.7500   -3.8971    0.0000 C   0  0  0  0  0  0  0  0  0  0  0  0
   -0.5490   -3.1471    0.0000 C   0  0  0  0  0  0  0  0  0  0  0  0
    1.5000   -2.5981    0.0000 N   0  0  0  0  0  0  0  0  0  0  0  0
    0.7500   -1.2990    0.0000 C   0  0  0  0  0  0  0  0  0  0  0  0
    1.5000    0.0000    0.0000 N   0  0  0  0  0  0  0  0  0  0  0  0
    0.7500    1.2990    0.0000 C   0  0  0  0  0  0  0  0  0  0  0  0
   -0.7500    1.2990    0.0000 C   0  0  0  0  0  0  0  0  0  0  0  0
   -1.5000    2.5981    0.0000 C   0  0  0  0  0  0  0  0  0  0  0  0
   -3.0000    2.5981    0.0000 O   0  0  0  0  0  0  0  0  0  0  0  0
   -0.7500    3.8971    0.0000 N   0  0  0  0  0  0  0  0  0  0  0  0
   -1.5000    5.1962    0.0000 O   0  0  0  0  0  0  0  0  0  0  0  0
   -1.5000    0.0000    0.0000 C   0  0  0  0  0  0  0  0  0  0  0  0
   -0.7500   -1.2990    0.0000 N   0  0  0  0  0  0  0  0  0  0  0  0
   -0.0000   -5.1962    0.0000 C   0  0  0  0  0  0  0  0  0  0  0  0
   -1.5000   -5.1962    0.0000 C   0  0  0  0  0  0  0  0  0  0  0  0
   -2.2500   -6.4952    0.0000 C   0  0  0  0  0  0  0  0  0  0  0  0
   -1.5000   -7.7942    0.0000 C   0  0  0  0  0  0  0  0  0  0  0  0
   -0.0000   -7.7942    0.0000 C   0  0  0  0  0  0  0  0  0  0  0  0
    0.7500   -6.4952    0.0000 C   0  0  0  0  0  0  0  0  0  0  0  0
  1  2  1  0
  2  3  1  0
  2  4  1  0
  4  5  1  0
  5  6  2  0
  6  7  1  0
  7  8  2  0
  8  9  1  0
  9 10  2  0
  9 11  1  0
 11 12  1  0
  8 13  1  0
 13 14  2  0
  2 15  1  0
 15 16  2  0
 16 17  1  0
 17 18  2  0
 18 19  1  0
 19 20  2  0
 14  5  1  0
 20 15  1  0
M  END
>  <molecule_chembl_id>  (365) 
CHEMBL3655933

>  <canonical_smiles>  (365) 
CC(C)(Nc1ncc(C(=O)NO)cn1)c1ccccc1

>  <pchembl_value_mean>  (365) 
5.82

>  <document_chembl_id>  (365) 
CHEMBL3639071

$$$$

     RDKit          2D

 28 31  0  0  0  0  0  0  0  0999 V2000
    3.7500   -3.8971    0.0000 N   0  0  0  0  0  0  0  0  0  0  0  0
    3.0000   -5.1962    0.0000 C   0  0  0  0  0  0  0  0  0  0  0  0
    3.7500   -6.4952    0.0000 C   0  0  0  0  0  0  0  0  0  0  0  0
    3.0000   -7.7942    0.0000 C   0  0  0  0  0  0  0  0  0  0  0  0
    3.7500   -9.0933    0.0000 F   0  0  0  0  0  0  0  0  0  0  0  0
    1.5000   -7.7942    0.0000 C   0  0  0  0  0  0  0  0  0  0  0  0
    0.7500   -6.4952    0.0000 C   0  0  0  0  0  0  0  0  0  0  0  0
    1.5000   -5.1962    0.0000 C   0  0  0  0  0  0  0  0  0  0  0  0
    0.7500   -3.8971    0.0000 N   0  0  0  0  0  0  0  0  0  0  0  0
    1.5000   -2.5981    0.0000 C   0  0  0  0  0  0  0  0  0  0  0  0
    3.0000   -2.5981    0.0000 O   0  0  0  0  0  0  0  0  0  0  0  0
    0.7500   -1.2990    0.0000 C   0  0  0  0  0  0  0  0  0  0  0  0
    1.5000    0.0000    0.0000 C   0  0  0  0  0  0  0  0  0  0  0  0
    0.7500    1.2990    0.0000 N   0  0  0  0  0  0  0  0  0  0  0  0
   -0.7500    1.2990    0.0000 C   0  0  0  0  0  0  0  0  0  0  0  0
   -1.5000    0.0000    0.0000 C   0  0  0  0  0  0  0  0  0  0  0  0
   -2.9672    0.3119    0.0000 C   0  0  0  0  0  0  0  0  0  0  0  0
   -3.1240    1.8037    0.0000 C   0  0  0  0  0  0  0  0  0  0  0  0
   -1.7537    2.4138    0.0000 N   0  0  0  0  0  0  0  0  0  0  0  0
   -1.4418    3.8810    0.0000 C   0  0  0  0  0  0  0  0  0  0  0  0
   -2.5565    4.8847    0.0000 C   0  0  0  0  0  0  0  0  0  0  0  0
   -2.2447    6.3519    0.0000 N   0  0  0  0  0  0  0  0  0  0  0  0
   -0.8181    6.8154    0.0000 C   0  0  0  0  0  0  0  0  0  0  0  0
   -0.5062    8.2826    0.0000 C   0  0  0  0  0  0  0  0  0  0  0  0
   -1.6209    9.2863    0.0000 O   0  0  0  0  0  0  0  0  0  0  0  0
   -3.0475    8.8228    0.0000 C   0  0  0  0  0  0  0  0  0  0  0  0
   -3.3594    7.3556    0.0000 C   0  0  0  0  0  0  0  0  0  0  0  0
   -0.7500   -1.2990    0.0000 C   0  0  0  0  0  0  0  0  0  0  0  0
  1  2  1  0
  2  3  2  0
  3  4  1  0
  4  5  1  0
  4  6  2  0
  6  7  1  0
  7  8  2  0
  8  9  1  0
  9 10  1  0
 10 11  2  0
 10 12  1  0
 12 13  2  0
 13 14  1  0
 14 15  2  0
 15 16  1  0
 16 17  1  0
 17 18  2  0
 18 19  1  0
 19 20  1  0
 20 21  1  0
 21 22  1  0
 22 23  1  0
 23 24  1  0
 24 25  1  0
 25 26  1  0
 26 27  1  0
 16 28  2  0
  8  2  1  0
 28 12  1  0
 19 15  1  0
 27 22  1  0
M  END
>  <molecule_chembl_id>  (366) 
CHEMBL3664027

>  <canonical_smiles>  (366) 
Nc1cc(F)ccc1NC(=O)c1cnc2c(ccn2CCN2CCOCC2)c1

>  <pchembl_value_mean>  (366) 
5.82

>  <document_chembl_id>  (366) 
CHEMBL3639382

$$$$

     RDKit          2D

 25 27  0  0  0  0  0  0  0  0999 V2000
    4.8308   -6.3240    0.0000 C   0  0  0  0  0  0  0  0  0  0  0  0
    4.6740   -4.8322    0.0000 C   0  0  0  0  0  0  0  0  0  0  0  0
    3.3037   -4.2221    0.0000 C   0  0  0  0  0  0  0  0  0  0  0  0
    2.9918   -2.7549    0.0000 C   0  0  0  0  0  0  0  0  0  0  0  0
    1.5000   -2.5981    0.0000 C   0  0  0  0  0  0  0  0  0  0  0  0
    0.7500   -1.2990    0.0000 C   0  0  0  0  0  0  0  0  0  0  0  0
    1.5000    0.0000    0.0000 C   0  0  0  0  0  0  0  0  0  0  0  0
    0.7500    1.2990    0.0000 C   0  0  0  0  0  0  0  0  0  0  0  0
   -0.7500    1.2990    0.0000 C   0  0  0  0  0  0  0  0  0  0  0  0
   -1.5000    2.5981    0.0000 F   0  0  0  0  0  0  0  0  0  0  0  0
   -1.5000    0.0000    0.0000 C   0  0  0  0  0  0  0  0  0  0  0  0
   -0.7500   -1.2990    0.0000 C   0  0  0  0  0  0  0  0  0  0  0  0
    0.8899   -3.9684    0.0000 N   0  0  0  0  0  0  0  0  0  0  0  0
   -0.5773   -4.2803    0.0000 C   0  0  0  0  0  0  0  0  0  0  0  0
   -1.0409   -5.7068    0.0000 C   0  0  0  0  0  0  0  0  0  0  0  0
   -2.5081   -6.0187    0.0000 C   0  0  0  0  0  0  0  0  0  0  0  0
   -2.9716   -7.4453    0.0000 C   0  0  0  0  0  0  0  0  0  0  0  0
   -1.9679   -8.5600    0.0000 C   0  0  0  0  0  0  0  0  0  0  0  0
   -2.4314   -9.9866    0.0000 C   0  0  0  0  0  0  0  0  0  0  0  0
   -1.4277  -11.1013    0.0000 O   0  0  0  0  0  0  0  0  0  0  0  0
   -3.8986  -10.2985    0.0000 N   0  0  0  0  0  0  0  0  0  0  0  0
   -4.3622  -11.7251    0.0000 O   0  0  0  0  0  0  0  0  0  0  0  0
   -0.5007   -8.2481    0.0000 C   0  0  0  0  0  0  0  0  0  0  0  0
   -0.0372   -6.8216    0.0000 C   0  0  0  0  0  0  0  0  0  0  0  0
    2.0046   -4.9721    0.0000 N   0  0  0  0  0  0  0  0  0  0  0  0
  1  2  1  0
  2  3  1  0
  3  4  1  0
  4  5  2  0
  5  6  1  0
  6  7  2  0
  7  8  1  0
  8  9  2  0
  9 10  1  0
  9 11  1  0
 11 12  2  0
  5 13  1  0
 13 14  1  0
 14 15  1  0
 15 16  2  0
 16 17  1  0
 17 18  2  0
 18 19  1  0
 19 20  2  0
 19 21  1  0
 21 22  1  0
 18 23  1  0
 23 24  2  0
 13 25  1  0
 25  3  2  0
 12  6  1  0
 24 15  1  0
M  END
>  <molecule_chembl_id>  (367) 
CHEMBL4226024

>  <canonical_smiles>  (367) 
CCc1cc(-c2ccc(F)cc2)n(Cc2ccc(C(=O)NO)cc2)n1

>  <pchembl_value_mean>  (367) 
5.82

>  <document_chembl_id>  (367) 
CHEMBL4219109

$$$$

     RDKit          2D

 36 39  0  0  0  0  0  0  0  0999 V2000
    3.7500   -1.2990    0.0000 C   0  0  0  0  0  0  0  0  0  0  0  0
    3.0000    0.0000    0.0000 O   0  0  0  0  0  0  0  0  0  0  0  0
    1.5000    0.0000    0.0000 C   0  0  0  0  0  0  0  0  0  0  0  0
    0.7500   -1.2990    0.0000 C   0  0  0  0  0  0  0  0  0  0  0  0
   -0.7500   -1.2990    0.0000 C   0  0  0  0  0  0  0  0  0  0  0  0
   -1.5000    0.0000    0.0000 C   0  0  0  0  0  0  0  0  0  0  0  0
   -3.0000    0.0000    0.0000 S   0  0  0  0  0  0  0  0  0  0  0  0
   -3.0000    1.5000    0.0000 O   0  0  0  0  0  0  0  0  0  0  0  0
   -3.0000   -1.5000    0.0000 O   0  0  0  0  0  0  0  0  0  0  0  0
   -4.5000    0.0000    0.0000 N   0  0  0  0  0  0  0  0  0  0  0  0
   -5.2500   -1.2990    0.0000 C   0  0  0  0  0  0  0  0  0  0  0  0
   -6.7500   -1.2990    0.0000 C   0  0  0  0  0  0  0  0  0  0  0  0
   -7.5000   -2.5981    0.0000 C   0  0  0  0  0  0  0  0  0  0  0  0
   -6.7500   -3.8971    0.0000 C   0  0  0  0  0  0  0  0  0  0  0  0
   -5.2500   -3.8971    0.0000 C   0  0  0  0  0  0  0  0  0  0  0  0
   -4.5000   -2.5981    0.0000 C   0  0  0  0  0  0  0  0  0  0  0  0
   -3.0000   -2.5981    0.0000 N   0  0  0  0  0  0  0  0  0  0  0  0
   -2.2500   -3.8971    0.0000 C   0  0  0  0  0  0  0  0  0  0  0  0
   -0.7500   -3.8971    0.0000 C   0  0  0  0  0  0  0  0  0  0  0  0
   -0.0000   -5.1962    0.0000 C   0  0  0  0  0  0  0  0  0  0  0  0
    1.5000   -5.1962    0.0000 C   0  0  0  0  0  0  0  0  0  0  0  0
    2.2500   -3.8971    0.0000 C   0  0  0  0  0  0  0  0  0  0  0  0
    3.7500   -3.8971    0.0000 C   0  0  0  0  0  0  0  0  0  0  0  0
    4.5000   -2.5981    0.0000 O   0  0  0  0  0  0  0  0  0  0  0  0
    4.5000   -5.1962    0.0000 N   0  0  0  0  0  0  0  0  0  0  0  0
    6.0000   -5.1962    0.0000 C   0  0  0  0  0  0  0  0  0  0  0  0
    6.7500   -6.4952    0.0000 C   0  0  0  0  0  0  0  0  0  0  0  0
    8.2500   -6.4952    0.0000 C   0  0  0  0  0  0  0  0  0  0  0  0
    9.0000   -5.1962    0.0000 C   0  0  0  0  0  0  0  0  0  0  0  0
    8.2500   -3.8971    0.0000 C   0  0  0  0  0  0  0  0  0  0  0  0
    6.7500   -3.8971    0.0000 C   0  0  0  0  0  0  0  0  0  0  0  0
    6.0000   -2.5981    0.0000 N   0  0  0  0  0  0  0  0  0  0  0  0
    1.5000   -2.5981    0.0000 C   0  0  0  0  0  0  0  0  0  0  0  0
   -0.0000   -2.5981    0.0000 C   0  0  0  0  0  0  0  0  0  0  0  0
   -0.7500    1.2990    0.0000 C   0  0  0  0  0  0  0  0  0  0  0  0
    0.7500    1.2990    0.0000 C   0  0  0  0  0  0  0  0  0  0  0  0
  1  2  1  0
  2  3  1  0
  3  4  2  0
  4  5  1  0
  5  6  2  0
  6  7  1  0
  7  8  2  0
  7  9  2  0
  7 10  1  0
 10 11  1  0
 11 12  2  0
 12 13  1  0
 13 14  2  0
 14 15  1  0
 15 16  2  0
 16 17  1  0
 17 18  1  0
 18 19  1  0
 19 20  2  0
 20 21  1  0
 21 22  2  0
 22 23  1  0
 23 24  2  0
 23 25  1  0
 25 26  1  0
 26 27  2  0
 27 28  1  0
 28 29  2  0
 29 30  1  0
 30 31  2  0
 31 32  1  0
 22 33  1  0
 33 34  2  0
  6 35  1  0
 35 36  2  0
 36  3  1  0
 16 11  1  0
 34 19  1  0
 31 26  1  0
M  END
>  <molecule_chembl_id>  (368) 
CHEMBL4749443

>  <canonical_smiles>  (368) 
COc1ccc(S(=O)(=O)Nc2ccccc2NCc2ccc(C(=O)Nc3ccccc3N)cc2)cc1

>  <pchembl_value_mean>  (368) 
5.83

>  <document_chembl_id>  (368) 
CHEMBL4680226

$$$$

     RDKit          2D

 23 24  0  0  0  0  0  0  0  0999 V2000
    3.7500   -1.2990    0.0000 C   0  0  0  0  0  0  0  0  0  0  0  0
    3.0000    0.0000    0.0000 O   0  0  0  0  0  0  0  0  0  0  0  0
    1.5000    0.0000    0.0000 C   0  0  0  0  0  0  0  0  0  0  0  0
    0.7500   -1.2990    0.0000 C   0  0  0  0  0  0  0  0  0  0  0  0
   -0.7500   -1.2990    0.0000 C   0  0  0  0  0  0  0  0  0  0  0  0
   -1.5000    0.0000    0.0000 C   0  0  0  0  0  0  0  0  0  0  0  0
   -0.7500    1.2990    0.0000 C   0  0  0  0  0  0  0  0  0  0  0  0
    0.7500    1.2990    0.0000 C   0  0  0  0  0  0  0  0  0  0  0  0
    1.5000    2.5981    0.0000 C   0  0  0  0  0  0  0  0  0  0  0  0
    3.0000    2.5981    0.0000 N   0  0  0  0  0  0  0  0  0  0  0  0
    3.7500    3.8971    0.0000 C   0  0  0  0  0  0  0  0  0  0  0  0
    5.2500    3.8971    0.0000 C   0  0  0  0  0  0  0  0  0  0  0  0
    6.0000    2.5981    0.0000 C   0  0  0  0  0  0  0  0  0  0  0  0
    7.5000    2.5981    0.0000 C   0  0  0  0  0  0  0  0  0  0  0  0
    8.2500    3.8971    0.0000 C   0  0  0  0  0  0  0  0  0  0  0  0
    9.7500    3.8971    0.0000 C   0  0  0  0  0  0  0  0  0  0  0  0
   10.5000    2.5981    0.0000 C   0  0  0  0  0  0  0  0  0  0  0  0
   12.0000    2.5981    0.0000 C   0  0  0  0  0  0  0  0  0  0  0  0
   12.7500    3.8971    0.0000 O   0  0  0  0  0  0  0  0  0  0  0  0
   12.7500    1.2990    0.0000 N   0  0  0  0  0  0  0  0  0  0  0  0
   14.2500    1.2990    0.0000 O   0  0  0  0  0  0  0  0  0  0  0  0
    7.5000    5.1962    0.0000 C   0  0  0  0  0  0  0  0  0  0  0  0
    6.0000    5.1962    0.0000 C   0  0  0  0  0  0  0  0  0  0  0  0
  1  2  1  0
  2  3  1  0
  3  4  2  0
  4  5  1  0
  5  6  2  0
  6  7  1  0
  7  8  2  0
  8  9  1  0
  9 10  1  0
 10 11  1  0
 11 12  1  0
 12 13  2  0
 13 14  1  0
 14 15  2  0
 15 16  1  0
 16 17  2  3
 17 18  1  0
 18 19  2  0
 18 20  1  0
 20 21  1  0
 15 22  1  0
 22 23  2  0
  8  3  1  0
 23 12  1  0
M  END
>  <molecule_chembl_id>  (369) 
CHEMBL4454331

>  <canonical_smiles>  (369) 
COc1ccccc1CNCc1ccc(C=CC(=O)NO)cc1

>  <pchembl_value_mean>  (369) 
5.83

>  <document_chembl_id>  (369) 
CHEMBL4385666

$$$$

     RDKit          2D

 36 40  0  0  0  0  0  0  0  0999 V2000
   -2.9499    4.2246    0.0000 N   0  0  0  0  0  0  0  0  0  0  0  0
   -1.8351    3.2209    0.0000 C   0  0  0  0  0  0  0  0  0  0  0  0
   -0.4086    3.6844    0.0000 N   0  0  0  0  0  0  0  0  0  0  0  0
    0.7062    2.6807    0.0000 C   0  0  0  0  0  0  0  0  0  0  0  0
    2.1328    3.1443    0.0000 N   0  0  0  0  0  0  0  0  0  0  0  0
    2.4446    4.6115    0.0000 C   0  0  0  0  0  0  0  0  0  0  0  0
    3.8712    5.0750    0.0000 C   0  0  0  0  0  0  0  0  0  0  0  0
    4.1831    6.5422    0.0000 C   0  0  0  0  0  0  0  0  0  0  0  0
    3.0684    7.5459    0.0000 C   0  0  0  0  0  0  0  0  0  0  0  0
    3.3802    9.0132    0.0000 F   0  0  0  0  0  0  0  0  0  0  0  0
    1.6418    7.0824    0.0000 C   0  0  0  0  0  0  0  0  0  0  0  0
    0.5271    8.0861    0.0000 Cl  0  0  0  0  0  0  0  0  0  0  0  0
    1.3299    5.6152    0.0000 C   0  0  0  0  0  0  0  0  0  0  0  0
    0.3943    1.2135    0.0000 C   0  0  0  0  0  0  0  0  0  0  0  0
    1.2760    0.0000    0.0000 C   0  0  0  0  0  0  0  0  0  0  0  0
    0.3943   -1.2135    0.0000 C   0  0  0  0  0  0  0  0  0  0  0  0
   -1.0323   -0.7500    0.0000 N   0  0  0  0  0  0  0  0  0  0  0  0
   -2.2458   -1.6317    0.0000 C   0  0  0  0  0  0  0  0  0  0  0  0
   -2.0890   -3.1235    0.0000 C   0  0  0  0  0  0  0  0  0  0  0  0
   -3.3025   -4.0051    0.0000 C   0  0  0  0  0  0  0  0  0  0  0  0
   -3.1458   -5.4969    0.0000 C   0  0  0  0  0  0  0  0  0  0  0  0
   -1.7754   -6.1070    0.0000 C   0  0  0  0  0  0  0  0  0  0  0  0
   -1.6186   -7.5988    0.0000 C   0  0  0  0  0  0  0  0  0  0  0  0
   -0.2483   -8.2089    0.0000 O   0  0  0  0  0  0  0  0  0  0  0  0
   -2.8322   -8.4805    0.0000 N   0  0  0  0  0  0  0  0  0  0  0  0
   -2.6754   -9.9723    0.0000 C   0  0  0  0  0  0  0  0  0  0  0  0
   -3.8889  -10.8539    0.0000 C   0  0  0  0  0  0  0  0  0  0  0  0
   -3.7321  -12.3457    0.0000 C   0  0  0  0  0  0  0  0  0  0  0  0
   -2.3618  -12.9558    0.0000 C   0  0  0  0  0  0  0  0  0  0  0  0
   -1.1483  -12.0742    0.0000 C   0  0  0  0  0  0  0  0  0  0  0  0
   -1.3051  -10.5824    0.0000 C   0  0  0  0  0  0  0  0  0  0  0  0
   -0.0915   -9.7007    0.0000 N   0  0  0  0  0  0  0  0  0  0  0  0
   -0.5619   -5.2253    0.0000 C   0  0  0  0  0  0  0  0  0  0  0  0
   -0.7187   -3.7336    0.0000 C   0  0  0  0  0  0  0  0  0  0  0  0
   -1.0323    0.7500    0.0000 C   0  0  0  0  0  0  0  0  0  0  0  0
   -2.1470    1.7537    0.0000 N   0  0  0  0  0  0  0  0  0  0  0  0
  1  2  1  0
  2  3  2  0
  3  4  1  0
  4  5  1  0
  5  6  1  0
  6  7  2  0
  7  8  1  0
  8  9  2  0
  9 10  1  0
  9 11  1  0
 11 12  1  0
 11 13  2  0
  4 14  2  0
 14 15  1  0
 15 16  2  0
 16 17  1  0
 17 18  1  0
 18 19  1  0
 19 20  2  0
 20 21  1  0
 21 22  2  0
 22 23  1  0
 23 24  2  0
 23 25  1  0
 25 26  1  0
 26 27  2  0
 27 28  1  0
 28 29  2  0
 29 30  1  0
 30 31  2  0
 31 32  1  0
 22 33  1  0
 33 34  2  0
 17 35  1  0
 35 36  2  0
 36  2  1  0
 13  6  1  0
 35 14  1  0
 34 19  1  0
 31 26  1  0
M  END
>  <molecule_chembl_id>  (370) 
CHEMBL4782132

>  <canonical_smiles>  (370) 
Nc1nc(Nc2ccc(F)c(Cl)c2)c2ccn(Cc3ccc(C(=O)Nc4ccccc4N)cc3)c2n1

>  <pchembl_value_mean>  (370) 
5.84

>  <document_chembl_id>  (370) 
CHEMBL4765296

$$$$

     RDKit          2D

 38 42  0  0  0  0  0  0  0  0999 V2000
    8.6575    5.6260    0.0000 N   0  0  0  0  0  0  0  0  0  0  0  0
    9.6612    4.5113    0.0000 C   0  0  0  0  0  0  0  0  0  0  0  0
   11.1284    4.8232    0.0000 C   0  0  0  0  0  0  0  0  0  0  0  0
   12.1321    3.7085    0.0000 C   0  0  0  0  0  0  0  0  0  0  0  0
   11.6685    2.2819    0.0000 C   0  0  0  0  0  0  0  0  0  0  0  0
   10.2013    1.9700    0.0000 C   0  0  0  0  0  0  0  0  0  0  0  0
    9.1976    3.0847    0.0000 C   0  0  0  0  0  0  0  0  0  0  0  0
    7.7304    2.7729    0.0000 N   0  0  0  0  0  0  0  0  0  0  0  0
    6.7267    3.8876    0.0000 C   0  0  0  0  0  0  0  0  0  0  0  0
    7.1902    5.3142    0.0000 O   0  0  0  0  0  0  0  0  0  0  0  0
    5.2595    3.5757    0.0000 C   0  0  0  0  0  0  0  0  0  0  0  0
    4.2558    4.6904    0.0000 C   0  0  0  0  0  0  0  0  0  0  0  0
    2.7886    4.3786    0.0000 C   0  0  0  0  0  0  0  0  0  0  0  0
    2.3250    2.9520    0.0000 C   0  0  0  0  0  0  0  0  0  0  0  0
    0.8578    2.6401    0.0000 C   0  0  0  0  0  0  0  0  0  0  0  0
    0.3943    1.2135    0.0000 N   0  0  0  0  0  0  0  0  0  0  0  0
    1.2760    0.0000    0.0000 C   0  0  0  0  0  0  0  0  0  0  0  0
    0.3943   -1.2135    0.0000 N   0  0  0  0  0  0  0  0  0  0  0  0
   -1.0323   -0.7500    0.0000 C   0  0  0  0  0  0  0  0  0  0  0  0
   -2.3313   -1.5000    0.0000 C   0  0  0  0  0  0  0  0  0  0  0  0
   -2.3313   -3.0000    0.0000 N   0  0  0  0  0  0  0  0  0  0  0  0
   -3.6304   -3.7500    0.0000 C   0  0  0  0  0  0  0  0  0  0  0  0
   -4.9294   -3.0000    0.0000 C   0  0  0  0  0  0  0  0  0  0  0  0
   -6.2284   -3.7500    0.0000 C   0  0  0  0  0  0  0  0  0  0  0  0
   -6.2284   -5.2500    0.0000 C   0  0  0  0  0  0  0  0  0  0  0  0
   -7.5275   -6.0000    0.0000 C   0  0  0  0  0  0  0  0  0  0  0  0
   -7.5275   -7.5000    0.0000 O   0  0  0  0  0  0  0  0  0  0  0  0
   -8.8265   -5.2500    0.0000 N   0  0  0  0  0  0  0  0  0  0  0  0
  -10.1256   -6.0000    0.0000 O   0  0  0  0  0  0  0  0  0  0  0  0
   -4.9294   -6.0000    0.0000 C   0  0  0  0  0  0  0  0  0  0  0  0
   -3.6304   -5.2500    0.0000 C   0  0  0  0  0  0  0  0  0  0  0  0
   -3.6304   -0.7500    0.0000 N   0  0  0  0  0  0  0  0  0  0  0  0
   -3.6304    0.7500    0.0000 C   0  0  0  0  0  0  0  0  0  0  0  0
   -4.9294    1.5000    0.0000 Cl  0  0  0  0  0  0  0  0  0  0  0  0
   -2.3313    1.5000    0.0000 N   0  0  0  0  0  0  0  0  0  0  0  0
   -1.0323    0.7500    0.0000 C   0  0  0  0  0  0  0  0  0  0  0  0
    3.3287    1.8373    0.0000 C   0  0  0  0  0  0  0  0  0  0  0  0
    4.7960    2.1491    0.0000 C   0  0  0  0  0  0  0  0  0  0  0  0
  1  2  1  0
  2  3  2  0
  3  4  1  0
  4  5  2  0
  5  6  1  0
  6  7  2  0
  7  8  1  0
  8  9  1  0
  9 10  2  0
  9 11  1  0
 11 12  2  0
 12 13  1  0
 13 14  2  0
 14 15  1  0
 15 16  1  0
 16 17  1  0
 17 18  2  0
 18 19  1  0
 19 20  2  0
 20 21  1  0
 21 22  1  0
 22 23  2  0
 23 24  1  0
 24 25  2  0
 25 26  1  0
 26 27  2  0
 26 28  1  0
 28 29  1  0
 25 30  1  0
 30 31  2  0
 20 32  1  0
 32 33  2  0
 33 34  1  0
 33 35  1  0
 35 36  2  0
 14 37  1  0
 37 38  2  0
  7  2  1  0
 38 11  1  0
 36 16  1  0
 36 19  1  0
 31 22  1  0
M  END
>  <molecule_chembl_id>  (371) 
CHEMBL4795285

>  <canonical_smiles>  (371) 
Nc1ccccc1NC(=O)c1ccc(Cn2cnc3c(Nc4ccc(C(=O)NO)cc4)nc(Cl)nc32)cc1

>  <pchembl_value_mean>  (371) 
5.84

>  <document_chembl_id>  (371) 
CHEMBL4765296

$$$$

     RDKit          2D

 31 34  0  0  0  0  0  0  0  0999 V2000
    3.0000    0.0000    0.0000 N   0  0  0  0  0  0  0  0  0  0  0  0
    1.5000    0.0000    0.0000 C   0  0  0  0  0  0  0  0  0  0  0  0
    0.7500   -1.2990    0.0000 C   0  0  0  0  0  0  0  0  0  0  0  0
   -0.7500   -1.2990    0.0000 C   0  0  0  0  0  0  0  0  0  0  0  0
   -1.5000   -2.5981    0.0000 O   0  0  0  0  0  0  0  0  0  0  0  0
   -1.5000    0.0000    0.0000 C   0  0  0  0  0  0  0  0  0  0  0  0
   -0.7500    1.2990    0.0000 C   0  0  0  0  0  0  0  0  0  0  0  0
    0.7500    1.2990    0.0000 C   0  0  0  0  0  0  0  0  0  0  0  0
    1.5000    2.5981    0.0000 N   0  0  0  0  0  0  0  0  0  0  0  0
    0.7500    3.8971    0.0000 C   0  0  0  0  0  0  0  0  0  0  0  0
   -0.7500    3.8971    0.0000 O   0  0  0  0  0  0  0  0  0  0  0  0
    1.5000    5.1962    0.0000 C   0  0  0  0  0  0  0  0  0  0  0  0
    3.0000    5.1962    0.0000 C   0  0  0  0  0  0  0  0  0  0  0  0
    3.7500    6.4952    0.0000 C   0  0  0  0  0  0  0  0  0  0  0  0
    3.0000    7.7942    0.0000 C   0  0  0  0  0  0  0  0  0  0  0  0
    3.7500    9.0933    0.0000 C   0  0  0  0  0  0  0  0  0  0  0  0
    5.2500    9.0933    0.0000 N   0  0  0  0  0  0  0  0  0  0  0  0
    6.0000   10.3923    0.0000 C   0  0  0  0  0  0  0  0  0  0  0  0
    7.5000   10.3923    0.0000 N   0  0  0  0  0  0  0  0  0  0  0  0
    8.2500   11.6913    0.0000 C   0  0  0  0  0  0  0  0  0  0  0  0
    7.5000   12.9904    0.0000 C   0  0  0  0  0  0  0  0  0  0  0  0
    6.0000   12.9904    0.0000 C   0  0  0  0  0  0  0  0  0  0  0  0
    5.2500   14.2894    0.0000 C   0  0  0  0  0  0  0  0  0  0  0  0
    6.0000   15.5885    0.0000 C   0  0  0  0  0  0  0  0  0  0  0  0
    5.2500   16.8875    0.0000 C   0  0  0  0  0  0  0  0  0  0  0  0
    3.7500   16.8875    0.0000 C   0  0  0  0  0  0  0  0  0  0  0  0
    3.0000   15.5885    0.0000 N   0  0  0  0  0  0  0  0  0  0  0  0
    3.7500   14.2894    0.0000 C   0  0  0  0  0  0  0  0  0  0  0  0
    5.2500   11.6913    0.0000 N   0  0  0  0  0  0  0  0  0  0  0  0
    1.5000    7.7942    0.0000 C   0  0  0  0  0  0  0  0  0  0  0  0
    0.7500    6.4952    0.0000 C   0  0  0  0  0  0  0  0  0  0  0  0
  1  2  1  0
  2  3  2  0
  3  4  1  0
  4  5  1  0
  4  6  2  0
  6  7  1  0
  7  8  2  0
  8  9  1  0
  9 10  1  0
 10 11  2  0
 10 12  1  0
 12 13  2  0
 13 14  1  0
 14 15  2  0
 15 16  1  0
 16 17  1  0
 17 18  1  0
 18 19  2  0
 19 20  1  0
 20 21  2  0
 21 22  1  0
 22 23  1  0
 23 24  2  0
 24 25  1  0
 25 26  2  0
 26 27  1  0
 27 28  2  0
 22 29  2  0
 15 30  1  0
 30 31  2  0
  8  2  1  0
 31 12  1  0
 29 18  1  0
 28 23  1  0
M  END
>  <molecule_chembl_id>  (372) 
CHEMBL2407743

>  <canonical_smiles>  (372) 
Nc1cc(O)ccc1NC(=O)c1ccc(CNc2nccc(-c3cccnc3)n2)cc1

>  <pchembl_value_mean>  (372) 
5.84

>  <document_chembl_id>  (372) 
CHEMBL2407081

$$$$

     RDKit          2D

 34 37  0  0  0  0  0  0  0  0999 V2000
   -9.5490   -4.6471    0.0000 C   0  0  0  0  0  0  0  0  0  0  0  0
   -8.2500   -3.8971    0.0000 C   0  0  0  0  0  0  0  0  0  0  0  0
   -6.9510   -3.1471    0.0000 C   0  0  0  0  0  0  0  0  0  0  0  0
   -9.0000   -2.5981    0.0000 C   0  0  0  0  0  0  0  0  0  0  0  0
   -7.5000   -5.1962    0.0000 O   0  0  0  0  0  0  0  0  0  0  0  0
   -6.0000   -5.1962    0.0000 C   0  0  0  0  0  0  0  0  0  0  0  0
   -5.2500   -3.8971    0.0000 C   0  0  0  0  0  0  0  0  0  0  0  0
   -3.7500   -3.8971    0.0000 C   0  0  0  0  0  0  0  0  0  0  0  0
   -3.0000   -5.1962    0.0000 C   0  0  0  0  0  0  0  0  0  0  0  0
   -1.5000   -5.1962    0.0000 C   0  0  0  0  0  0  0  0  0  0  0  0
   -0.7500   -3.8971    0.0000 C   0  0  0  0  0  0  0  0  0  0  0  0
    0.7500   -3.8971    0.0000 C   0  0  0  0  0  0  0  0  0  0  0  0
    1.5000   -5.1962    0.0000 O   0  0  0  0  0  0  0  0  0  0  0  0
    1.5000   -2.5981    0.0000 N   0  0  0  0  0  0  0  0  0  0  0  0
    0.7500   -1.2990    0.0000 C   0  0  0  0  0  0  0  0  0  0  0  0
    1.5000    0.0000    0.0000 C   0  0  0  0  0  0  0  0  0  0  0  0
    0.7500    1.2990    0.0000 C   0  0  0  0  0  0  0  0  0  0  0  0
   -0.7500    1.2990    0.0000 C   0  0  0  0  0  0  0  0  0  0  0  0
   -1.5000    0.0000    0.0000 C   0  0  0  0  0  0  0  0  0  0  0  0
   -0.7500   -1.2990    0.0000 C   0  0  0  0  0  0  0  0  0  0  0  0
   -1.5000   -2.5981    0.0000 N   0  0  0  0  0  0  0  0  0  0  0  0
   -3.0000   -2.5981    0.0000 C   0  0  0  0  0  0  0  0  0  0  0  0
   -3.7500   -1.2990    0.0000 C   0  0  0  0  0  0  0  0  0  0  0  0
   -3.0000    0.0000    0.0000 C   0  0  0  0  0  0  0  0  0  0  0  0
   -3.7500    1.2990    0.0000 C   0  0  0  0  0  0  0  0  0  0  0  0
   -5.2500    1.2990    0.0000 C   0  0  0  0  0  0  0  0  0  0  0  0
   -6.0000    2.5981    0.0000 C   0  0  0  0  0  0  0  0  0  0  0  0
   -7.5000    2.5981    0.0000 O   0  0  0  0  0  0  0  0  0  0  0  0
   -5.2500    3.8971    0.0000 N   0  0  0  0  0  0  0  0  0  0  0  0
   -6.0000    5.1962    0.0000 O   0  0  0  0  0  0  0  0  0  0  0  0
   -6.0000    0.0000    0.0000 C   0  0  0  0  0  0  0  0  0  0  0  0
   -5.2500   -1.2990    0.0000 C   0  0  0  0  0  0  0  0  0  0  0  0
   -3.7500   -6.4952    0.0000 C   0  0  0  0  0  0  0  0  0  0  0  0
   -5.2500   -6.4952    0.0000 C   0  0  0  0  0  0  0  0  0  0  0  0
  1  2  1  0
  2  3  1  0
  2  4  1  0
  2  5  1  0
  5  6  1  0
  6  7  2  0
  7  8  1  0
  8  9  2  0
  9 10  1  0
 10 11  1  0
 11 12  1  0
 12 13  2  0
 12 14  1  0
 14 15  1  0
 15 16  2  0
 16 17  1  0
 17 18  2  0
 18 19  1  0
 19 20  2  0
 20 21  1  0
 21 22  1  0
 22 23  1  0
 23 24  2  0
 24 25  1  0
 25 26  2  0
 26 27  1  0
 27 28  2  0
 27 29  1  0
 29 30  1  0
 26 31  1  0
 31 32  2  0
  9 33  1  0
 33 34  2  0
 34  6  1  0
 21 11  1  0
 32 23  1  0
 20 15  1  0
M  END
>  <molecule_chembl_id>  (373) 
CHEMBL521431

>  <canonical_smiles>  (373) 
CC(C)(C)Oc1ccc(CC2C(=O)Nc3ccccc3N2Cc2ccc(C(=O)NO)cc2)cc1

>  <pchembl_value_mean>  (373) 
5.84

>  <document_chembl_id>  (373) 
CHEMBL1143301

$$$$

     RDKit          2D

 39 41  0  0  0  0  0  0  0  0999 V2000
    6.8839   -1.2990    0.0000 C   0  0  0  0  0  0  0  0  0  0  0  0
    5.3839   -1.2990    0.0000 C   0  0  0  0  0  0  0  0  0  0  0  0
    4.6339    0.0000    0.0000 C   0  0  0  0  0  0  0  0  0  0  0  0
    3.1339    0.0000    0.0000 C   0  0  0  0  0  0  0  0  0  0  0  0
    2.7750    1.4564    0.0000 N   0  0  0  0  0  0  0  0  0  0  0  0
    1.7803    2.5792    0.0000 C   0  0  0  0  0  0  0  0  0  0  0  0
    2.6324    3.8137    0.0000 O   0  0  0  0  0  0  0  0  0  0  0  0
    0.3778    3.1111    0.0000 C   0  0  0  0  0  0  0  0  0  0  0  0
    0.5586    4.6001    0.0000 C   0  0  0  0  0  0  0  0  0  0  0  0
   -1.1113    2.9303    0.0000 N   0  0  0  0  0  0  0  0  0  0  0  0
   -2.3458    2.0782    0.0000 C   0  0  0  0  0  0  0  0  0  0  0  0
   -3.4686    3.0729    0.0000 O   0  0  0  0  0  0  0  0  0  0  0  0
   -3.0429    0.7500    0.0000 C   0  0  0  0  0  0  0  0  0  0  0  0
   -3.0429   -0.7500    0.0000 C   0  0  0  0  0  0  0  0  0  0  0  0
   -4.4993   -1.1090    0.0000 C   0  0  0  0  0  0  0  0  0  0  0  0
   -5.5384   -0.0272    0.0000 C   0  0  0  0  0  0  0  0  0  0  0  0
   -6.9948   -0.3861    0.0000 C   0  0  0  0  0  0  0  0  0  0  0  0
   -5.1210    1.4136    0.0000 C   0  0  0  0  0  0  0  0  0  0  0  0
   -2.3458   -2.0782    0.0000 N   0  0  0  0  0  0  0  0  0  0  0  0
   -1.1113   -2.9303    0.0000 C   0  0  0  0  0  0  0  0  0  0  0  0
   -1.6432   -4.3328    0.0000 O   0  0  0  0  0  0  0  0  0  0  0  0
    0.3778   -3.1111    0.0000 C   0  0  0  0  0  0  0  0  0  0  0  0
    0.5586   -4.6001    0.0000 C   0  0  0  0  0  0  0  0  0  0  0  0
   -0.6406   -5.5013    0.0000 C   0  0  0  0  0  0  0  0  0  0  0  0
   -2.0745   -5.0608    0.0000 C   0  0  0  0  0  0  0  0  0  0  0  0
   -2.9365   -6.2884    0.0000 N   0  0  0  0  0  0  0  0  0  0  0  0
   -4.4363   -6.3125    0.0000 C   0  0  0  0  0  0  0  0  0  0  0  0
   -5.2071   -5.0257    0.0000 N   0  0  0  0  0  0  0  0  0  0  0  0
   -6.7069   -5.0499    0.0000 C   0  0  0  0  0  0  0  0  0  0  0  0
   -4.4781   -3.7148    0.0000 C   0  0  0  0  0  0  0  0  0  0  0  0
   -2.0354   -7.4875    0.0000 C   0  0  0  0  0  0  0  0  0  0  0  0
   -2.3236   -8.9596    0.0000 C   0  0  0  0  0  0  0  0  0  0  0  0
   -1.1928   -9.9452    0.0000 C   0  0  0  0  0  0  0  0  0  0  0  0
    0.2261   -9.4587    0.0000 C   0  0  0  0  0  0  0  0  0  0  0  0
    0.5143   -7.9867    0.0000 C   0  0  0  0  0  0  0  0  0  0  0  0
   -0.6164   -7.0011    0.0000 C   0  0  0  0  0  0  0  0  0  0  0  0
    1.7803   -2.5792    0.0000 N   0  0  0  0  0  0  0  0  0  0  0  0
    2.7750   -1.4564    0.0000 C   0  0  0  0  0  0  0  0  0  0  0  0
    4.1031   -2.1535    0.0000 O   0  0  0  0  0  0  0  0  0  0  0  0
  1  2  1  0
  2  3  1  0
  3  4  1  0
  4  5  1  0
  5  6  1  0
  6  7  2  0
  6  8  1  0
  8  9  1  0
  8 10  1  0
 10 11  1  0
 11 12  2  0
 11 13  1  0
 13 14  1  0
 14 15  1  0
 15 16  1  0
 16 17  1  0
 16 18  1  0
 14 19  1  0
 19 20  1  0
 20 21  2  0
 20 22  1  0
 22 23  1  0
 23 24  1  0
 24 25  2  0
 25 26  1  0
 26 27  1  0
 27 28  1  0
 28 29  1  0
 28 30  1  0
 26 31  1  0
 31 32  2  0
 32 33  1  0
 33 34  2  0
 34 35  1  0
 35 36  2  0
 22 37  1  0
 37 38  1  0
 38 39  2  0
 38  4  1  0
 36 24  1  0
 36 31  1  0
M  END
>  <molecule_chembl_id>  (374) 
CHEMBL2063396

>  <canonical_smiles>  (374) 
CCCC1NC(=O)C(C)NC(=O)CC(CC(C)C)NC(=O)C(Cc2cn(CN(C)C)c3ccccc23)NC1=O

>  <pchembl_value_mean>  (374) 
5.845

>  <document_chembl_id>  (374) 
CHEMBL2062402

$$$$

     RDKit          2D

 36 39  0  0  0  0  0  0  0  0999 V2000
    3.7500   -1.2990    0.0000 C   0  0  0  0  0  0  0  0  0  0  0  0
    3.0000    0.0000    0.0000 O   0  0  0  0  0  0  0  0  0  0  0  0
    1.5000    0.0000    0.0000 C   0  0  0  0  0  0  0  0  0  0  0  0
    0.7500   -1.2990    0.0000 C   0  0  0  0  0  0  0  0  0  0  0  0
   -0.7500   -1.2990    0.0000 C   0  0  0  0  0  0  0  0  0  0  0  0
   -1.5000    0.0000    0.0000 C   0  0  0  0  0  0  0  0  0  0  0  0
   -2.9672    0.3119    0.0000 C   0  0  0  0  0  0  0  0  0  0  0  0
   -4.0819   -0.6918    0.0000 C   0  0  0  0  0  0  0  0  0  0  0  0
   -3.7701   -2.1590    0.0000 O   0  0  0  0  0  0  0  0  0  0  0  0
   -5.5085   -0.2283    0.0000 C   0  0  0  0  0  0  0  0  0  0  0  0
   -5.8204    1.2389    0.0000 C   0  0  0  0  0  0  0  0  0  0  0  0
   -7.2470    1.7024    0.0000 C   0  0  0  0  0  0  0  0  0  0  0  0
   -7.5588    3.1697    0.0000 O   0  0  0  0  0  0  0  0  0  0  0  0
   -8.9854    3.6332    0.0000 C   0  0  0  0  0  0  0  0  0  0  0  0
   -8.3617    0.6987    0.0000 C   0  0  0  0  0  0  0  0  0  0  0  0
   -9.7883    1.1623    0.0000 O   0  0  0  0  0  0  0  0  0  0  0  0
  -10.9030    0.1586    0.0000 C   0  0  0  0  0  0  0  0  0  0  0  0
   -8.0498   -0.7685    0.0000 C   0  0  0  0  0  0  0  0  0  0  0  0
   -9.1645   -1.7722    0.0000 O   0  0  0  0  0  0  0  0  0  0  0  0
   -8.8527   -3.2394    0.0000 C   0  0  0  0  0  0  0  0  0  0  0  0
   -6.6232   -1.2320    0.0000 C   0  0  0  0  0  0  0  0  0  0  0  0
   -3.1240    1.8037    0.0000 C   0  0  0  0  0  0  0  0  0  0  0  0
   -1.7537    2.4138    0.0000 N   0  0  0  0  0  0  0  0  0  0  0  0
   -1.4418    3.8810    0.0000 C   0  0  0  0  0  0  0  0  0  0  0  0
   -2.5565    4.8847    0.0000 C   0  0  0  0  0  0  0  0  0  0  0  0
   -2.2447    6.3519    0.0000 C   0  0  0  0  0  0  0  0  0  0  0  0
   -3.3594    7.3556    0.0000 C   0  0  0  0  0  0  0  0  0  0  0  0
   -4.7860    6.8921    0.0000 C   0  0  0  0  0  0  0  0  0  0  0  0
   -5.9007    7.8958    0.0000 C   0  0  0  0  0  0  0  0  0  0  0  0
   -7.3273    7.4322    0.0000 O   0  0  0  0  0  0  0  0  0  0  0  0
   -5.5888    9.3630    0.0000 N   0  0  0  0  0  0  0  0  0  0  0  0
   -6.7035   10.3667    0.0000 O   0  0  0  0  0  0  0  0  0  0  0  0
   -5.0978    5.4248    0.0000 C   0  0  0  0  0  0  0  0  0  0  0  0
   -3.9831    4.4211    0.0000 C   0  0  0  0  0  0  0  0  0  0  0  0
   -0.7500    1.2990    0.0000 C   0  0  0  0  0  0  0  0  0  0  0  0
    0.7500    1.2990    0.0000 C   0  0  0  0  0  0  0  0  0  0  0  0
  1  2  1  0
  2  3  1  0
  3  4  2  0
  4  5  1  0
  5  6  2  0
  6  7  1  0
  7  8  1  0
  8  9  2  0
  8 10  1  0
 10 11  2  0
 11 12  1  0
 12 13  1  0
 13 14  1  0
 12 15  2  0
 15 16  1  0
 16 17  1  0
 15 18  1  0
 18 19  1  0
 19 20  1  0
 18 21  2  0
  7 22  2  0
 22 23  1  0
 23 24  1  0
 24 25  1  0
 25 26  2  0
 26 27  1  0
 27 28  2  0
 28 29  1  0
 29 30  2  0
 29 31  1  0
 31 32  1  0
 28 33  1  0
 33 34  2  0
 23 35  1  0
 35 36  2  0
 36  3  1  0
 35  6  1  0
 21 10  1  0
 34 25  1  0
M  END
>  <molecule_chembl_id>  (375) 
CHEMBL4093691

>  <canonical_smiles>  (375) 
COc1ccc2c(C(=O)c3cc(OC)c(OC)c(OC)c3)cn(Cc3ccc(C(=O)NO)cc3)c2c1

>  <pchembl_value_mean>  (375) 
5.85

>  <document_chembl_id>  (375) 
CHEMBL4041521

$$$$

     RDKit          2D

 30 32  0  0  0  0  0  0  0  0999 V2000
   15.4664   -6.0335    0.0000 C   0  0  0  0  0  0  0  0  0  0  0  0
   14.4627   -7.1482    0.0000 C   0  0  0  0  0  0  0  0  0  0  0  0
   12.9955   -6.8363    0.0000 C   0  0  0  0  0  0  0  0  0  0  0  0
   11.9918   -7.9510    0.0000 N   0  0  0  0  0  0  0  0  0  0  0  0
   10.5000   -7.7942    0.0000 C   0  0  0  0  0  0  0  0  0  0  0  0
    9.7500   -6.4952    0.0000 S   0  0  0  0  0  0  0  0  0  0  0  0
    8.2500   -6.4952    0.0000 C   0  0  0  0  0  0  0  0  0  0  0  0
    7.5000   -5.1962    0.0000 C   0  0  0  0  0  0  0  0  0  0  0  0
    6.0000   -5.1962    0.0000 C   0  0  0  0  0  0  0  0  0  0  0  0
    5.2500   -3.8971    0.0000 C   0  0  0  0  0  0  0  0  0  0  0  0
    3.7500   -3.8971    0.0000 C   0  0  0  0  0  0  0  0  0  0  0  0
    3.0000   -2.5981    0.0000 C   0  0  0  0  0  0  0  0  0  0  0  0
    3.7500   -1.2990    0.0000 O   0  0  0  0  0  0  0  0  0  0  0  0
    1.5000   -2.5981    0.0000 N   0  0  0  0  0  0  0  0  0  0  0  0
    0.7500   -1.2990    0.0000 C   0  0  0  0  0  0  0  0  0  0  0  0
    1.5000    0.0000    0.0000 C   0  0  0  0  0  0  0  0  0  0  0  0
    0.7500    1.2990    0.0000 C   0  0  0  0  0  0  0  0  0  0  0  0
   -0.7500    1.2990    0.0000 C   0  0  0  0  0  0  0  0  0  0  0  0
   -1.5000    0.0000    0.0000 C   0  0  0  0  0  0  0  0  0  0  0  0
   -0.7500   -1.2990    0.0000 C   0  0  0  0  0  0  0  0  0  0  0  0
   -1.5000   -2.5981    0.0000 N   0  0  0  0  0  0  0  0  0  0  0  0
    9.8899   -9.1645    0.0000 N   0  0  0  0  0  0  0  0  0  0  0  0
   11.0046  -10.1682    0.0000 N   0  0  0  0  0  0  0  0  0  0  0  0
   12.3037   -9.4182    0.0000 C   0  0  0  0  0  0  0  0  0  0  0  0
   13.6740  -10.0283    0.0000 C   0  0  0  0  0  0  0  0  0  0  0  0
   13.8308  -11.5201    0.0000 C   0  0  0  0  0  0  0  0  0  0  0  0
   15.2011  -12.1302    0.0000 C   0  0  0  0  0  0  0  0  0  0  0  0
   16.4146  -11.2486    0.0000 N   0  0  0  0  0  0  0  0  0  0  0  0
   16.2578   -9.7568    0.0000 C   0  0  0  0  0  0  0  0  0  0  0  0
   14.8875   -9.1467    0.0000 C   0  0  0  0  0  0  0  0  0  0  0  0
  1  2  2  0
  2  3  1  0
  3  4  1  0
  4  5  1  0
  5  6  1  0
  6  7  1  0
  7  8  1  0
  8  9  1  0
  9 10  1  0
 10 11  1  0
 11 12  1  0
 12 13  2  0
 12 14  1  0
 14 15  1  0
 15 16  2  0
 16 17  1  0
 17 18  2  0
 18 19  1  0
 19 20  2  0
 20 21  1  0
  5 22  2  0
 22 23  1  0
 23 24  2  0
 24 25  1  0
 25 26  2  0
 26 27  1  0
 27 28  2  0
 28 29  1  0
 29 30  2  0
 24  4  1  0
 30 25  1  0
 20 15  1  0
M  END
>  <molecule_chembl_id>  (376) 
CHEMBL4868119

>  <canonical_smiles>  (376) 
C=CCn1c(SCCCCCC(=O)Nc2ccccc2N)nnc1-c1ccncc1

>  <pchembl_value_mean>  (376) 
5.85

>  <document_chembl_id>  (376) 
CHEMBL4823270

$$$$

     RDKit          2D

 24 26  0  0  0  0  0  0  0  0999 V2000
    3.0000    0.0000    0.0000 N   0  0  0  0  0  0  0  0  0  0  0  0
    1.5000    0.0000    0.0000 C   0  0  0  0  0  0  0  0  0  0  0  0
    0.7500   -1.2990    0.0000 C   0  0  0  0  0  0  0  0  0  0  0  0
   -0.7500   -1.2990    0.0000 C   0  0  0  0  0  0  0  0  0  0  0  0
   -1.5000    0.0000    0.0000 C   0  0  0  0  0  0  0  0  0  0  0  0
   -0.7500    1.2990    0.0000 C   0  0  0  0  0  0  0  0  0  0  0  0
    0.7500    1.2990    0.0000 C   0  0  0  0  0  0  0  0  0  0  0  0
    1.5000    2.5981    0.0000 N   0  0  0  0  0  0  0  0  0  0  0  0
    0.7500    3.8971    0.0000 C   0  0  0  0  0  0  0  0  0  0  0  0
   -0.7500    3.8971    0.0000 O   0  0  0  0  0  0  0  0  0  0  0  0
    1.5000    5.1962    0.0000 C   0  0  0  0  0  0  0  0  0  0  0  0
    3.0000    5.1962    0.0000 C   0  0  0  0  0  0  0  0  0  0  0  0
    3.7500    6.4952    0.0000 C   0  0  0  0  0  0  0  0  0  0  0  0
    3.0000    7.7942    0.0000 C   0  0  0  0  0  0  0  0  0  0  0  0
    3.7500    9.0933    0.0000 C   0  0  0  0  0  0  0  0  0  0  0  0
    5.2500    9.0933    0.0000 N   0  0  0  0  0  0  0  0  0  0  0  0
    6.0000   10.3923    0.0000 C   0  0  0  0  0  0  0  0  0  0  0  0
    7.5000   10.3923    0.0000 C   0  0  0  0  0  0  0  0  0  0  0  0
    8.2500   11.6913    0.0000 C   0  0  0  0  0  0  0  0  0  0  0  0
    7.5000   12.9904    0.0000 C   0  0  0  0  0  0  0  0  0  0  0  0
    6.0000   12.9904    0.0000 C   0  0  0  0  0  0  0  0  0  0  0  0
    5.2500   11.6913    0.0000 C   0  0  0  0  0  0  0  0  0  0  0  0
    1.5000    7.7942    0.0000 C   0  0  0  0  0  0  0  0  0  0  0  0
    0.7500    6.4952    0.0000 C   0  0  0  0  0  0  0  0  0  0  0  0
  1  2  1  0
  2  3  2  0
  3  4  1  0
  4  5  2  0
  5  6  1  0
  6  7  2  0
  7  8  1  0
  8  9  1  0
  9 10  2  0
  9 11  1  0
 11 12  2  0
 12 13  1  0
 13 14  2  0
 14 15  1  0
 15 16  1  0
 16 17  1  0
 17 18  2  0
 18 19  1  0
 19 20  2  0
 20 21  1  0
 21 22  2  0
 14 23  1  0
 23 24  2  0
  7  2  1  0
 24 11  1  0
 22 17  1  0
M  END
>  <molecule_chembl_id>  (377) 
CHEMBL4572172

>  <canonical_smiles>  (377) 
Nc1ccccc1NC(=O)c1ccc(CNc2ccccc2)cc1

>  <pchembl_value_mean>  (377) 
5.85

>  <document_chembl_id>  (377) 
CHEMBL4351000

$$$$

     RDKit          2D

 22 23  0  0  0  0  0  0  0  0999 V2000
  -12.0000  -10.3923    0.0000 O   0  0  0  0  0  0  0  0  0  0  0  0
  -10.5000  -10.3923    0.0000 C   0  0  0  0  0  0  0  0  0  0  0  0
   -9.7500   -9.0933    0.0000 N   0  0  0  0  0  0  0  0  0  0  0  0
  -10.5000   -7.7942    0.0000 O   0  0  0  0  0  0  0  0  0  0  0  0
   -8.2500   -9.0933    0.0000 C   0  0  0  0  0  0  0  0  0  0  0  0
   -7.5000   -7.7942    0.0000 C   0  0  0  0  0  0  0  0  0  0  0  0
   -6.0000   -7.7942    0.0000 C   0  0  0  0  0  0  0  0  0  0  0  0
   -5.2500   -6.4952    0.0000 C   0  0  0  0  0  0  0  0  0  0  0  0
   -3.7500   -6.4952    0.0000 C   0  0  0  0  0  0  0  0  0  0  0  0
   -3.0000   -5.1962    0.0000 N   0  0  0  0  0  0  0  0  0  0  0  0
   -1.5000   -5.1962    0.0000 C   0  0  0  0  0  0  0  0  0  0  0  0
   -0.7500   -6.4952    0.0000 O   0  0  0  0  0  0  0  0  0  0  0  0
   -0.7500   -3.8971    0.0000 C   0  0  0  0  0  0  0  0  0  0  0  0
    0.7500   -3.8971    0.0000 C   0  0  0  0  0  0  0  0  0  0  0  0
    1.5000   -2.5981    0.0000 C   0  0  0  0  0  0  0  0  0  0  0  0
    0.7500   -1.2990    0.0000 C   0  0  0  0  0  0  0  0  0  0  0  0
    1.5000    0.0000    0.0000 C   0  0  0  0  0  0  0  0  0  0  0  0
    0.7500    1.2990    0.0000 C   0  0  0  0  0  0  0  0  0  0  0  0
   -0.7500    1.2990    0.0000 C   0  0  0  0  0  0  0  0  0  0  0  0
   -1.5000    0.0000    0.0000 C   0  0  0  0  0  0  0  0  0  0  0  0
   -0.7500   -1.2990    0.0000 C   0  0  0  0  0  0  0  0  0  0  0  0
   -1.5000   -2.5981    0.0000 C   0  0  0  0  0  0  0  0  0  0  0  0
  1  2  2  0
  2  3  1  0
  3  4  1  0
  3  5  1  0
  5  6  1  0
  6  7  1  0
  7  8  1  0
  8  9  1  0
  9 10  1  0
 10 11  1  0
 11 12  2  0
 11 13  1  0
 13 14  2  0
 14 15  1  0
 15 16  2  0
 16 17  1  0
 17 18  2  0
 18 19  1  0
 19 20  2  0
 20 21  1  0
 21 22  2  0
 22 13  1  0
 21 16  1  0
M  END
>  <molecule_chembl_id>  (378) 
CHEMBL343717

>  <canonical_smiles>  (378) 
O=CN(O)CCCCCNC(=O)c1ccc2ccccc2c1

>  <pchembl_value_mean>  (378) 
5.85

>  <document_chembl_id>  (378) 
CHEMBL1137945

$$$$

     RDKit          2D

 29 31  0  0  0  0  0  0  0  0999 V2000
   -0.3410  -13.1199    0.0000 O   0  0  0  0  0  0  0  0  0  0  0  0
   -1.7113  -12.5098    0.0000 C   0  0  0  0  0  0  0  0  0  0  0  0
   -1.8681  -11.0180    0.0000 C   0  0  0  0  0  0  0  0  0  0  0  0
   -0.6546  -10.1364    0.0000 C   0  0  0  0  0  0  0  0  0  0  0  0
   -0.8113   -8.6446    0.0000 C   0  0  0  0  0  0  0  0  0  0  0  0
    0.4022   -7.7629    0.0000 C   0  0  0  0  0  0  0  0  0  0  0  0
    0.2454   -6.2711    0.0000 N   0  0  0  0  0  0  0  0  0  0  0  0
    1.3601   -5.2674    0.0000 C   0  0  0  0  0  0  0  0  0  0  0  0
    0.7500   -3.8971    0.0000 C   0  0  0  0  0  0  0  0  0  0  0  0
    1.5000   -2.5981    0.0000 N   0  0  0  0  0  0  0  0  0  0  0  0
    0.7500   -1.2990    0.0000 C   0  0  0  0  0  0  0  0  0  0  0  0
    1.5000    0.0000    0.0000 N   0  0  0  0  0  0  0  0  0  0  0  0
    0.7500    1.2990    0.0000 C   0  0  0  0  0  0  0  0  0  0  0  0
   -0.7500    1.2990    0.0000 C   0  0  0  0  0  0  0  0  0  0  0  0
   -1.5000    2.5981    0.0000 Cl  0  0  0  0  0  0  0  0  0  0  0  0
   -1.5000    0.0000    0.0000 C   0  0  0  0  0  0  0  0  0  0  0  0
   -3.0000    0.0000    0.0000 N   0  0  0  0  0  0  0  0  0  0  0  0
   -3.7500    1.2990    0.0000 C   0  0  0  0  0  0  0  0  0  0  0  0
   -3.0000    2.5981    0.0000 C   0  0  0  0  0  0  0  0  0  0  0  0
   -3.7500    3.8971    0.0000 C   0  0  0  0  0  0  0  0  0  0  0  0
   -5.2500    3.8971    0.0000 C   0  0  0  0  0  0  0  0  0  0  0  0
   -6.0000    5.1962    0.0000 F   0  0  0  0  0  0  0  0  0  0  0  0
   -6.0000    2.5981    0.0000 C   0  0  0  0  0  0  0  0  0  0  0  0
   -5.2500    1.2990    0.0000 C   0  0  0  0  0  0  0  0  0  0  0  0
   -0.7500   -1.2990    0.0000 N   0  0  0  0  0  0  0  0  0  0  0  0
   -0.7418   -4.0539    0.0000 C   0  0  0  0  0  0  0  0  0  0  0  0
   -1.0537   -5.5211    0.0000 N   0  0  0  0  0  0  0  0  0  0  0  0
   -2.9248  -13.3915    0.0000 N   0  0  0  0  0  0  0  0  0  0  0  0
   -2.7680  -14.8833    0.0000 O   0  0  0  0  0  0  0  0  0  0  0  0
  1  2  2  0
  2  3  1  0
  3  4  1  0
  4  5  1  0
  5  6  1  0
  6  7  1  0
  7  8  1  0
  8  9  2  0
  9 10  1  0
 10 11  1  0
 11 12  2  0
 12 13  1  0
 13 14  2  0
 14 15  1  0
 14 16  1  0
 16 17  1  0
 17 18  1  0
 18 19  2  0
 19 20  1  0
 20 21  2  0
 21 22  1  0
 21 23  1  0
 23 24  2  0
 16 25  2  0
  9 26  1  0
 26 27  2  0
  2 28  1  0
 28 29  1  0
 27  7  1  0
 25 11  1  0
 24 18  1  0
M  END
>  <molecule_chembl_id>  (379) 
CHEMBL4568644

>  <canonical_smiles>  (379) 
O=C(CCCCn1cc(Nc2ncc(Cl)c(Nc3ccc(F)cc3)n2)cn1)NO

>  <pchembl_value_mean>  (379) 
5.85

>  <document_chembl_id>  (379) 
CHEMBL4346670

$$$$

     RDKit          2D

 25 26  0  0  0  0  0  0  0  0999 V2000
    3.7500    1.2990    0.0000 O   0  0  0  0  0  0  0  0  0  0  0  0
    3.0000    0.0000    0.0000 C   0  0  0  0  0  0  0  0  0  0  0  0
    3.7500   -1.2990    0.0000 N   0  0  0  0  0  0  0  0  0  0  0  0
    5.2500   -1.2990    0.0000 O   0  0  0  0  0  0  0  0  0  0  0  0
    1.5000    0.0000    0.0000 C   0  0  0  0  0  0  0  0  0  0  0  0
    0.7500   -1.2990    0.0000 C   0  0  0  0  0  0  0  0  0  0  0  0
   -0.7500   -1.2990    0.0000 N   0  0  0  0  0  0  0  0  0  0  0  0
   -1.5000    0.0000    0.0000 C   0  0  0  0  0  0  0  0  0  0  0  0
   -3.0000    0.0000    0.0000 N   0  0  0  0  0  0  0  0  0  0  0  0
   -3.7500    1.2990    0.0000 C   0  0  0  0  0  0  0  0  0  0  0  0
   -3.0000    2.5981    0.0000 C   0  0  0  0  0  0  0  0  0  0  0  0
   -3.7500    3.8971    0.0000 C   0  0  0  0  0  0  0  0  0  0  0  0
   -3.0000    5.1962    0.0000 C   0  0  0  0  0  0  0  0  0  0  0  0
   -2.2500    6.4952    0.0000 F   0  0  0  0  0  0  0  0  0  0  0  0
   -1.7010    4.4462    0.0000 F   0  0  0  0  0  0  0  0  0  0  0  0
   -4.2990    5.9462    0.0000 F   0  0  0  0  0  0  0  0  0  0  0  0
   -5.2500    3.8971    0.0000 C   0  0  0  0  0  0  0  0  0  0  0  0
   -6.0000    2.5981    0.0000 C   0  0  0  0  0  0  0  0  0  0  0  0
   -7.5000    2.5981    0.0000 C   0  0  0  0  0  0  0  0  0  0  0  0
   -9.0000    2.5981    0.0000 F   0  0  0  0  0  0  0  0  0  0  0  0
   -7.5000    4.0981    0.0000 F   0  0  0  0  0  0  0  0  0  0  0  0
   -7.5000    1.0981    0.0000 F   0  0  0  0  0  0  0  0  0  0  0  0
   -5.2500    1.2990    0.0000 C   0  0  0  0  0  0  0  0  0  0  0  0
   -0.7500    1.2990    0.0000 N   0  0  0  0  0  0  0  0  0  0  0  0
    0.7500    1.2990    0.0000 C   0  0  0  0  0  0  0  0  0  0  0  0
  1  2  2  0
  2  3  1  0
  3  4  1  0
  2  5  1  0
  5  6  2  0
  6  7  1  0
  7  8  2  0
  8  9  1  0
  9 10  1  0
 10 11  2  0
 11 12  1  0
 12 13  1  0
 13 14  1  0
 13 15  1  0
 13 16  1  0
 12 17  2  0
 17 18  1  0
 18 19  1  0
 19 20  1  0
 19 21  1  0
 19 22  1  0
 18 23  2  0
  8 24  1  0
 24 25  2  0
 25  5  1  0
 23 10  1  0
M  END
>  <molecule_chembl_id>  (380) 
CHEMBL3652235

>  <canonical_smiles>  (380) 
O=C(NO)c1cnc(Nc2cc(C(F)(F)F)cc(C(F)(F)F)c2)nc1

>  <pchembl_value_mean>  (380) 
5.86

>  <document_chembl_id>  (380) 
CHEMBL3639071

$$$$

     RDKit          2D

 31 34  0  0  0  0  0  0  0  0999 V2000
    3.7500    1.2990    0.0000 O   0  0  0  0  0  0  0  0  0  0  0  0
    3.0000    0.0000    0.0000 C   0  0  0  0  0  0  0  0  0  0  0  0
    3.7500   -1.2990    0.0000 N   0  0  0  0  0  0  0  0  0  0  0  0
    5.2500   -1.2990    0.0000 O   0  0  0  0  0  0  0  0  0  0  0  0
    1.5000    0.0000    0.0000 C   0  0  0  0  0  0  0  0  0  0  0  0
    0.7500   -1.2990    0.0000 C   0  0  0  0  0  0  0  0  0  0  0  0
   -0.7500   -1.2990    0.0000 C   0  0  0  0  0  0  0  0  0  0  0  0
   -1.5000    0.0000    0.0000 C   0  0  0  0  0  0  0  0  0  0  0  0
   -3.0000    0.0000    0.0000 C   0  0  0  0  0  0  0  0  0  0  0  0
   -3.7500    1.2990    0.0000 N   0  0  0  0  0  0  0  0  0  0  0  0
   -5.2500    1.2990    0.0000 C   0  0  0  0  0  0  0  0  0  0  0  0
   -6.0000    0.0000    0.0000 O   0  0  0  0  0  0  0  0  0  0  0  0
   -6.0000    2.5981    0.0000 C   0  0  0  0  0  0  0  0  0  0  0  0
   -7.4918    2.7549    0.0000 N   0  0  0  0  0  0  0  0  0  0  0  0
   -7.8037    4.2221    0.0000 C   0  0  0  0  0  0  0  0  0  0  0  0
   -9.1740    4.8322    0.0000 C   0  0  0  0  0  0  0  0  0  0  0  0
   -9.3308    6.3240    0.0000 C   0  0  0  0  0  0  0  0  0  0  0  0
  -10.7011    6.9341    0.0000 C   0  0  0  0  0  0  0  0  0  0  0  0
  -11.9146    6.0524    0.0000 C   0  0  0  0  0  0  0  0  0  0  0  0
  -13.2849    6.6625    0.0000 O   0  0  0  0  0  0  0  0  0  0  0  0
  -11.7578    4.5606    0.0000 C   0  0  0  0  0  0  0  0  0  0  0  0
  -10.3875    3.9505    0.0000 C   0  0  0  0  0  0  0  0  0  0  0  0
   -6.5046    4.9721    0.0000 C   0  0  0  0  0  0  0  0  0  0  0  0
   -5.3899    3.9684    0.0000 C   0  0  0  0  0  0  0  0  0  0  0  0
   -3.9227    4.2803    0.0000 C   0  0  0  0  0  0  0  0  0  0  0  0
   -3.3126    5.6506    0.0000 C   0  0  0  0  0  0  0  0  0  0  0  0
   -1.8208    5.4938    0.0000 C   0  0  0  0  0  0  0  0  0  0  0  0
   -1.5089    4.0266    0.0000 S   0  0  0  0  0  0  0  0  0  0  0  0
   -2.8080    3.2766    0.0000 C   0  0  0  0  0  0  0  0  0  0  0  0
   -0.7500    1.2990    0.0000 C   0  0  0  0  0  0  0  0  0  0  0  0
    0.7500    1.2990    0.0000 C   0  0  0  0  0  0  0  0  0  0  0  0
  1  2  2  0
  2  3  1  0
  3  4  1  0
  2  5  1  0
  5  6  2  0
  6  7  1  0
  7  8  2  0
  8  9  1  0
  9 10  1  0
 10 11  1  0
 11 12  2  0
 11 13  1  0
 13 14  1  0
 14 15  1  0
 15 16  1  0
 16 17  2  0
 17 18  1  0
 18 19  2  0
 19 20  1  0
 19 21  1  0
 21 22  2  0
 15 23  2  0
 23 24  1  0
 24 25  1  0
 25 26  1  0
 26 27  2  0
 27 28  1  0
 28 29  1  0
  8 30  1  0
 30 31  2  0
 31  5  1  0
 24 13  2  0
 29 25  2  0
 22 16  1  0
M  END
>  <molecule_chembl_id>  (381) 
CHEMBL3670665

>  <canonical_smiles>  (381) 
O=C(NO)c1ccc(CNC(=O)c2[nH]c(-c3ccc(O)cc3)cc2-c2ccsc2)cc1

>  <pchembl_value_mean>  (381) 
5.86

>  <document_chembl_id>  (381) 
CHEMBL3638813

$$$$

     RDKit          2D

 20 20  0  0  0  0  0  0  0  0999 V2000
    3.0000    0.0000    0.0000 C   0  0  0  0  0  0  0  0  0  0  0  0
    1.5000    0.0000    0.0000 C   0  0  0  0  0  0  0  0  0  0  0  0
    0.7500   -1.2990    0.0000 C   0  0  0  0  0  0  0  0  0  0  0  0
   -0.7500   -1.2990    0.0000 C   0  0  0  0  0  0  0  0  0  0  0  0
   -1.5000    0.0000    0.0000 C   0  0  0  0  0  0  0  0  0  0  0  0
   -0.7500    1.2990    0.0000 C   0  0  0  0  0  0  0  0  0  0  0  0
   -1.5000    2.5981    0.0000 C   0  0  0  0  0  0  0  0  0  0  0  0
   -3.0000    2.5981    0.0000 O   0  0  0  0  0  0  0  0  0  0  0  0
   -0.7500    3.8971    0.0000 N   0  0  0  0  0  0  0  0  0  0  0  0
   -1.5000    5.1962    0.0000 O   0  0  0  0  0  0  0  0  0  0  0  0
   -0.7500    6.4952    0.0000 C   0  0  0  0  0  0  0  0  0  0  0  0
   -1.5000    7.7942    0.0000 C   0  0  0  0  0  0  0  0  0  0  0  0
   -0.7500    9.0933    0.0000 C   0  0  0  0  0  0  0  0  0  0  0  0
   -1.5000   10.3923    0.0000 C   0  0  0  0  0  0  0  0  0  0  0  0
   -0.7500   11.6913    0.0000 C   0  0  0  0  0  0  0  0  0  0  0  0
   -1.5000   12.9904    0.0000 C   0  0  0  0  0  0  0  0  0  0  0  0
   -3.0000   12.9904    0.0000 O   0  0  0  0  0  0  0  0  0  0  0  0
   -0.7500   14.2894    0.0000 N   0  0  0  0  0  0  0  0  0  0  0  0
   -1.5000   15.5885    0.0000 O   0  0  0  0  0  0  0  0  0  0  0  0
    0.7500    1.2990    0.0000 C   0  0  0  0  0  0  0  0  0  0  0  0
  1  2  1  0
  2  3  2  0
  3  4  1  0
  4  5  2  0
  5  6  1  0
  6  7  1  0
  7  8  2  0
  7  9  1  0
  9 10  1  0
 10 11  1  0
 11 12  1  0
 12 13  1  0
 13 14  1  0
 14 15  1  0
 15 16  1  0
 16 17  2  0
 16 18  1  0
 18 19  1  0
  6 20  2  0
 20  2  1  0
M  END
>  <molecule_chembl_id>  (382) 
CHEMBL2312164

>  <canonical_smiles>  (382) 
Cc1cccc(C(=O)NOCCCCCC(=O)NO)c1

>  <pchembl_value_mean>  (382) 
5.86

>  <document_chembl_id>  (382) 
CHEMBL2311425

$$$$

     RDKit          2D

 23 25  0  0  0  0  0  0  0  0999 V2000
    3.0000    0.0000    0.0000 N   0  0  0  0  0  0  0  0  0  0  0  0
    1.5000    0.0000    0.0000 C   0  0  0  0  0  0  0  0  0  0  0  0
    0.7500   -1.2990    0.0000 C   0  0  0  0  0  0  0  0  0  0  0  0
   -0.7500   -1.2990    0.0000 C   0  0  0  0  0  0  0  0  0  0  0  0
   -1.5000    0.0000    0.0000 C   0  0  0  0  0  0  0  0  0  0  0  0
   -3.0000    0.0000    0.0000 C   0  0  0  0  0  0  0  0  0  0  0  0
   -3.7500    1.2990    0.0000 C   0  0  0  0  0  0  0  0  0  0  0  0
   -5.2500    1.2990    0.0000 C   0  0  0  0  0  0  0  0  0  0  0  0
   -6.0000    0.0000    0.0000 C   0  0  0  0  0  0  0  0  0  0  0  0
   -7.5000    0.0000    0.0000 F   0  0  0  0  0  0  0  0  0  0  0  0
   -5.2500   -1.2990    0.0000 C   0  0  0  0  0  0  0  0  0  0  0  0
   -3.7500   -1.2990    0.0000 C   0  0  0  0  0  0  0  0  0  0  0  0
   -0.7500    1.2990    0.0000 C   0  0  0  0  0  0  0  0  0  0  0  0
    0.7500    1.2990    0.0000 C   0  0  0  0  0  0  0  0  0  0  0  0
    1.5000    2.5981    0.0000 N   0  0  0  0  0  0  0  0  0  0  0  0
    0.7500    3.8971    0.0000 C   0  0  0  0  0  0  0  0  0  0  0  0
   -0.7500    3.8971    0.0000 O   0  0  0  0  0  0  0  0  0  0  0  0
    1.5000    5.1962    0.0000 C   0  0  0  0  0  0  0  0  0  0  0  0
    3.0000    5.1962    0.0000 C   0  0  0  0  0  0  0  0  0  0  0  0
    3.7500    6.4952    0.0000 C   0  0  0  0  0  0  0  0  0  0  0  0
    3.0000    7.7942    0.0000 C   0  0  0  0  0  0  0  0  0  0  0  0
    1.5000    7.7942    0.0000 C   0  0  0  0  0  0  0  0  0  0  0  0
    0.7500    6.4952    0.0000 O   0  0  0  0  0  0  0  0  0  0  0  0
  1  2  1  0
  2  3  2  0
  3  4  1  0
  4  5  2  0
  5  6  1  0
  6  7  2  0
  7  8  1  0
  8  9  2  0
  9 10  1  0
  9 11  1  0
 11 12  2  0
  5 13  1  0
 13 14  2  0
 14 15  1  0
 15 16  1  0
 16 17  2  0
 16 18  1  0
 18 19  1  0
 19 20  1  0
 20 21  1  0
 21 22  1  0
 22 23  1  0
 14  2  1  0
 23 18  1  0
 12  6  1  0
M  END
>  <molecule_chembl_id>  (383) 
CHEMBL3827766

>  <canonical_smiles>  (383) 
Nc1ccc(-c2ccc(F)cc2)cc1NC(=O)C1CCCCO1

>  <pchembl_value_mean>  (383) 
5.865

>  <document_chembl_id>  (383) 
CHEMBL3826926

$$$$

     RDKit          2D

 29 31  0  0  0  0  0  0  0  0999 V2000
   -0.0000   -5.1073    0.0000 C   0  0  0  0  0  0  0  0  0  0  0  0
   -0.0000   -3.6073    0.0000 C   0  0  0  0  0  0  0  0  0  0  0  0
    1.2135   -2.7256    0.0000 C   0  0  0  0  0  0  0  0  0  0  0  0
    2.6401   -3.1891    0.0000 C   0  0  0  0  0  0  0  0  0  0  0  0
    2.9520   -4.6564    0.0000 N   0  0  0  0  0  0  0  0  0  0  0  0
    4.3786   -5.1199    0.0000 C   0  0  0  0  0  0  0  0  0  0  0  0
    1.8373   -5.6601    0.0000 C   0  0  0  0  0  0  0  0  0  0  0  0
    0.7500   -1.2990    0.0000 C   0  0  0  0  0  0  0  0  0  0  0  0
    1.5000    0.0000    0.0000 C   0  0  0  0  0  0  0  0  0  0  0  0
    0.7500    1.2990    0.0000 C   0  0  0  0  0  0  0  0  0  0  0  0
   -0.7500    1.2990    0.0000 C   0  0  0  0  0  0  0  0  0  0  0  0
   -1.5000    0.0000    0.0000 C   0  0  0  0  0  0  0  0  0  0  0  0
   -0.7500   -1.2990    0.0000 C   0  0  0  0  0  0  0  0  0  0  0  0
   -1.2135   -2.7256    0.0000 N   0  0  0  0  0  0  0  0  0  0  0  0
   -2.6401   -3.1891    0.0000 S   0  0  0  0  0  0  0  0  0  0  0  0
   -2.1766   -4.6157    0.0000 O   0  0  0  0  0  0  0  0  0  0  0  0
   -3.1036   -1.7626    0.0000 O   0  0  0  0  0  0  0  0  0  0  0  0
   -4.0667   -3.6527    0.0000 C   0  0  0  0  0  0  0  0  0  0  0  0
   -5.1814   -2.6490    0.0000 C   0  0  0  0  0  0  0  0  0  0  0  0
   -6.6080   -3.1125    0.0000 C   0  0  0  0  0  0  0  0  0  0  0  0
   -6.9199   -4.5797    0.0000 C   0  0  0  0  0  0  0  0  0  0  0  0
   -5.8051   -5.5834    0.0000 C   0  0  0  0  0  0  0  0  0  0  0  0
   -6.1170   -7.0506    0.0000 C   0  0  0  0  0  0  0  0  0  0  0  0
   -7.5436   -7.5142    0.0000 C   0  0  0  0  0  0  0  0  0  0  0  0
   -7.8555   -8.9814    0.0000 C   0  0  0  0  0  0  0  0  0  0  0  0
   -6.7407   -9.9851    0.0000 O   0  0  0  0  0  0  0  0  0  0  0  0
   -9.2821   -9.4449    0.0000 N   0  0  0  0  0  0  0  0  0  0  0  0
   -9.5939  -10.9121    0.0000 O   0  0  0  0  0  0  0  0  0  0  0  0
   -4.3786   -5.1199    0.0000 C   0  0  0  0  0  0  0  0  0  0  0  0
  1  2  1  0
  2  3  2  0
  3  4  1  0
  4  5  1  0
  5  6  1  0
  5  7  1  0
  3  8  1  0
  8  9  2  0
  9 10  1  0
 10 11  2  0
 11 12  1  0
 12 13  2  0
 13 14  1  0
 14 15  1  0
 15 16  2  0
 15 17  2  0
 15 18  1  0
 18 19  2  0
 19 20  1  0
 20 21  2  0
 21 22  1  0
 22 23  1  0
 23 24  2  3
 24 25  1  0
 25 26  2  0
 25 27  1  0
 27 28  1  0
 22 29  2  0
 14  2  1  0
 29 18  1  0
 13  8  1  0
M  END
>  <molecule_chembl_id>  (384) 
CHEMBL4073888

>  <canonical_smiles>  (384) 
Cc1c(CN(C)C)c2ccccc2n1S(=O)(=O)c1cccc(C=CC(=O)NO)c1

>  <pchembl_value_mean>  (384) 
5.87

>  <document_chembl_id>  (384) 
CHEMBL3994606

$$$$

     RDKit          2D

 38 41  0  0  0  0  0  0  0  0999 V2000
   -4.6904   -6.5871    0.0000 C   0  0  0  0  0  0  0  0  0  0  0  0
   -4.3786   -5.1199    0.0000 O   0  0  0  0  0  0  0  0  0  0  0  0
   -2.9520   -4.6564    0.0000 C   0  0  0  0  0  0  0  0  0  0  0  0
   -1.8373   -5.6601    0.0000 O   0  0  0  0  0  0  0  0  0  0  0  0
   -2.6401   -3.1891    0.0000 C   0  0  0  0  0  0  0  0  0  0  0  0
   -1.2135   -2.7256    0.0000 C   0  0  0  0  0  0  0  0  0  0  0  0
   -0.0000   -3.6073    0.0000 C   0  0  0  0  0  0  0  0  0  0  0  0
   -0.0000   -5.1073    0.0000 C   0  0  0  0  0  0  0  0  0  0  0  0
    1.2135   -2.7256    0.0000 N   0  0  0  0  0  0  0  0  0  0  0  0
    2.6401   -3.1891    0.0000 C   0  0  0  0  0  0  0  0  0  0  0  0
    2.9520   -4.6564    0.0000 C   0  0  0  0  0  0  0  0  0  0  0  0
    1.8373   -5.6601    0.0000 C   0  0  0  0  0  0  0  0  0  0  0  0
    2.1491   -7.1273    0.0000 C   0  0  0  0  0  0  0  0  0  0  0  0
    3.5757   -7.5908    0.0000 C   0  0  0  0  0  0  0  0  0  0  0  0
    3.8876   -9.0580    0.0000 C   0  0  0  0  0  0  0  0  0  0  0  0
    5.2579   -9.6681    0.0000 C   0  0  0  0  0  0  0  0  0  0  0  0
    5.1011  -11.1599    0.0000 N   0  0  0  0  0  0  0  0  0  0  0  0
    6.2158  -12.1636    0.0000 C   0  0  0  0  0  0  0  0  0  0  0  0
    5.9040  -13.6308    0.0000 C   0  0  0  0  0  0  0  0  0  0  0  0
    7.0187  -14.6345    0.0000 C   0  0  0  0  0  0  0  0  0  0  0  0
    6.7068  -16.1018    0.0000 C   0  0  0  0  0  0  0  0  0  0  0  0
    7.8215  -17.1055    0.0000 C   0  0  0  0  0  0  0  0  0  0  0  0
    7.5097  -18.5727    0.0000 C   0  0  0  0  0  0  0  0  0  0  0  0
    6.0831  -19.0362    0.0000 O   0  0  0  0  0  0  0  0  0  0  0  0
    8.6244  -19.5764    0.0000 N   0  0  0  0  0  0  0  0  0  0  0  0
    8.3125  -21.0436    0.0000 O   0  0  0  0  0  0  0  0  0  0  0  0
    3.6339  -11.4718    0.0000 N   0  0  0  0  0  0  0  0  0  0  0  0
    2.8839  -10.1728    0.0000 N   0  0  0  0  0  0  0  0  0  0  0  0
    4.6904   -6.5871    0.0000 C   0  0  0  0  0  0  0  0  0  0  0  0
    4.3786   -5.1199    0.0000 C   0  0  0  0  0  0  0  0  0  0  0  0
    0.7500   -1.2990    0.0000 C   0  0  0  0  0  0  0  0  0  0  0  0
    1.5000    0.0000    0.0000 C   0  0  0  0  0  0  0  0  0  0  0  0
    0.7500    1.2990    0.0000 C   0  0  0  0  0  0  0  0  0  0  0  0
   -0.7500    1.2990    0.0000 C   0  0  0  0  0  0  0  0  0  0  0  0
   -1.5000    2.5981    0.0000 O   0  0  0  0  0  0  0  0  0  0  0  0
   -0.7500    3.8971    0.0000 C   0  0  0  0  0  0  0  0  0  0  0  0
   -1.5000    0.0000    0.0000 C   0  0  0  0  0  0  0  0  0  0  0  0
   -0.7500   -1.2990    0.0000 C   0  0  0  0  0  0  0  0  0  0  0  0
  1  2  1  0
  2  3  1  0
  3  4  2  0
  3  5  1  0
  5  6  1  0
  6  7  2  0
  7  8  1  0
  7  9  1  0
  9 10  1  0
 10 11  1  0
 11 12  2  0
 12 13  1  0
 13 14  2  0
 14 15  1  0
 15 16  2  0
 16 17  1  0
 17 18  1  0
 18 19  1  0
 19 20  1  0
 20 21  1  0
 21 22  1  0
 22 23  1  0
 23 24  2  0
 23 25  1  0
 25 26  1  0
 17 27  1  0
 27 28  2  0
 14 29  1  0
 29 30  2  0
  9 31  1  0
 31 32  2  0
 32 33  1  0
 33 34  2  0
 34 35  1  0
 35 36  1  0
 34 37  1  0
 37 38  2  0
 38  6  1  0
 30 11  1  0
 38 31  1  0
 28 15  1  0
M  END
>  <molecule_chembl_id>  (385) 
CHEMBL3884552

>  <canonical_smiles>  (385) 
COC(=O)Cc1c(C)n(Cc2ccc(-c3cn(CCCCCC(=O)NO)nn3)cc2)c2ccc(OC)cc12

>  <pchembl_value_mean>  (385) 
5.87

>  <document_chembl_id>  (385) 
CHEMBL3875218

$$$$

     RDKit          2D

 39 41  0  0  0  0  0  0  0  0999 V2000
    3.0000    0.0000    0.0000 C   0  0  0  0  0  0  0  0  0  0  0  0
    1.5000    0.0000    0.0000 C   0  0  0  0  0  0  0  0  0  0  0  0
    0.7500   -1.2990    0.0000 C   0  0  0  0  0  0  0  0  0  0  0  0
   -0.7500   -1.2990    0.0000 C   0  0  0  0  0  0  0  0  0  0  0  0
   -1.5000   -2.5981    0.0000 C   0  0  0  0  0  0  0  0  0  0  0  0
   -1.5000    0.0000    0.0000 C   0  0  0  0  0  0  0  0  0  0  0  0
   -3.0000    0.0000    0.0000 C   0  0  0  0  0  0  0  0  0  0  0  0
   -3.7500    1.2990    0.0000 N   0  0  0  0  0  0  0  0  0  0  0  0
   -5.2500    1.2990    0.0000 C   0  0  0  0  0  0  0  0  0  0  0  0
   -6.0000    0.0000    0.0000 O   0  0  0  0  0  0  0  0  0  0  0  0
   -6.0000    2.5981    0.0000 C   0  0  0  0  0  0  0  0  0  0  0  0
   -7.4918    2.7549    0.0000 C   0  0  0  0  0  0  0  0  0  0  0  0
   -7.8037    4.2221    0.0000 C   0  0  0  0  0  0  0  0  0  0  0  0
   -9.1740    4.8322    0.0000 C   0  0  0  0  0  0  0  0  0  0  0  0
   -6.5046    4.9721    0.0000 N   0  0  0  0  0  0  0  0  0  0  0  0
   -6.3478    6.4639    0.0000 C   0  0  0  0  0  0  0  0  0  0  0  0
   -4.9775    7.0740    0.0000 C   0  0  0  0  0  0  0  0  0  0  0  0
   -4.8207    8.5658    0.0000 C   0  0  0  0  0  0  0  0  0  0  0  0
   -6.0342    9.4474    0.0000 C   0  0  0  0  0  0  0  0  0  0  0  0
   -7.4046    8.8373    0.0000 C   0  0  0  0  0  0  0  0  0  0  0  0
   -8.6181    9.7190    0.0000 N   0  0  0  0  0  0  0  0  0  0  0  0
   -8.4613   11.2108    0.0000 C   0  0  0  0  0  0  0  0  0  0  0  0
   -7.0910   11.8209    0.0000 O   0  0  0  0  0  0  0  0  0  0  0  0
   -9.6748   12.0925    0.0000 C   0  0  0  0  0  0  0  0  0  0  0  0
   -9.5180   13.5843    0.0000 C   0  0  0  0  0  0  0  0  0  0  0  0
  -10.7315   14.4659    0.0000 C   0  0  0  0  0  0  0  0  0  0  0  0
  -10.5748   15.9577    0.0000 C   0  0  0  0  0  0  0  0  0  0  0  0
  -11.7883   16.8394    0.0000 C   0  0  0  0  0  0  0  0  0  0  0  0
  -11.6315   18.3312    0.0000 C   0  0  0  0  0  0  0  0  0  0  0  0
  -12.8450   19.2129    0.0000 C   0  0  0  0  0  0  0  0  0  0  0  0
  -14.2153   18.6027    0.0000 O   0  0  0  0  0  0  0  0  0  0  0  0
  -12.6882   20.7046    0.0000 N   0  0  0  0  0  0  0  0  0  0  0  0
  -13.9017   21.5863    0.0000 O   0  0  0  0  0  0  0  0  0  0  0  0
   -7.5613    7.3456    0.0000 C   0  0  0  0  0  0  0  0  0  0  0  0
   -5.3899    3.9684    0.0000 C   0  0  0  0  0  0  0  0  0  0  0  0
   -3.9227    4.2803    0.0000 C   0  0  0  0  0  0  0  0  0  0  0  0
   -0.7500    1.2990    0.0000 C   0  0  0  0  0  0  0  0  0  0  0  0
   -1.5000    2.5981    0.0000 O   0  0  0  0  0  0  0  0  0  0  0  0
    0.7500    1.2990    0.0000 N   0  0  0  0  0  0  0  0  0  0  0  0
  1  2  1  0
  2  3  2  0
  3  4  1  0
  4  5  1  0
  4  6  2  0
  6  7  1  0
  7  8  1  0
  8  9  1  0
  9 10  2  0
  9 11  1  0
 11 12  1  0
 12 13  2  0
 13 14  1  0
 13 15  1  0
 15 16  1  0
 16 17  2  0
 17 18  1  0
 18 19  2  0
 19 20  1  0
 20 21  1  0
 21 22  1  0
 22 23  2  0
 22 24  1  0
 24 25  1  0
 25 26  1  0
 26 27  1  0
 27 28  1  0
 28 29  1  0
 29 30  1  0
 30 31  2  0
 30 32  1  0
 32 33  1  0
 20 34  2  0
 15 35  1  0
 35 36  1  0
  6 37  1  0
 37 38  2  0
 37 39  1  0
 39  2  1  0
 35 11  2  0
 34 16  1  0
M  END
>  <molecule_chembl_id>  (386) 
CHEMBL4633299

>  <canonical_smiles>  (386) 
Cc1cc(C)c(CNC(=O)c2cc(C)n(-c3cccc(NC(=O)CCCCCCC(=O)NO)c3)c2C)c(=O)[nH]1

>  <pchembl_value_mean>  (386) 
5.88

>  <document_chembl_id>  (386) 
CHEMBL4613315

$$$$

     RDKit          2D

 39 42  0  0  0  0  0  0  0  0999 V2000
   -4.3786   -5.1199    0.0000 C   0  0  0  0  0  0  0  0  0  0  0  0
   -2.9520   -4.6564    0.0000 C   0  0  0  0  0  0  0  0  0  0  0  0
   -2.6401   -3.1891    0.0000 C   0  0  0  0  0  0  0  0  0  0  0  0
   -1.2135   -2.7256    0.0000 C   0  0  0  0  0  0  0  0  0  0  0  0
   -0.0000   -3.6073    0.0000 N   0  0  0  0  0  0  0  0  0  0  0  0
    1.2135   -2.7256    0.0000 N   0  0  0  0  0  0  0  0  0  0  0  0
    2.6401   -3.1891    0.0000 C   0  0  0  0  0  0  0  0  0  0  0  0
    0.7500   -1.2990    0.0000 C   0  0  0  0  0  0  0  0  0  0  0  0
    1.5000    0.0000    0.0000 C   0  0  0  0  0  0  0  0  0  0  0  0
    3.0000    0.0000    0.0000 O   0  0  0  0  0  0  0  0  0  0  0  0
    0.7500    1.2990    0.0000 N   0  0  0  0  0  0  0  0  0  0  0  0
   -0.7500    1.2990    0.0000 C   0  0  0  0  0  0  0  0  0  0  0  0
   -1.5000    2.5981    0.0000 C   0  0  0  0  0  0  0  0  0  0  0  0
   -0.7500    3.8971    0.0000 C   0  0  0  0  0  0  0  0  0  0  0  0
   -1.5000    5.1962    0.0000 C   0  0  0  0  0  0  0  0  0  0  0  0
   -0.7500    6.4952    0.0000 S   0  0  0  0  0  0  0  0  0  0  0  0
    0.5490    5.7452    0.0000 O   0  0  0  0  0  0  0  0  0  0  0  0
   -2.0490    7.2452    0.0000 O   0  0  0  0  0  0  0  0  0  0  0  0
    0.0000    7.7942    0.0000 N   0  0  0  0  0  0  0  0  0  0  0  0
   -0.7500    9.0933    0.0000 C   0  0  0  0  0  0  0  0  0  0  0  0
    0.0000   10.3923    0.0000 C   0  0  0  0  0  0  0  0  0  0  0  0
   -0.7500   11.6913    0.0000 C   0  0  0  0  0  0  0  0  0  0  0  0
   -2.2500   11.6913    0.0000 C   0  0  0  0  0  0  0  0  0  0  0  0
   -3.0000   12.9904    0.0000 C   0  0  0  0  0  0  0  0  0  0  0  0
   -2.2500   14.2894    0.0000 C   0  0  0  0  0  0  0  0  0  0  0  0
   -3.0000   15.5885    0.0000 C   0  0  0  0  0  0  0  0  0  0  0  0
   -4.5000   15.5885    0.0000 O   0  0  0  0  0  0  0  0  0  0  0  0
   -2.2500   16.8875    0.0000 N   0  0  0  0  0  0  0  0  0  0  0  0
   -3.0000   18.1865    0.0000 O   0  0  0  0  0  0  0  0  0  0  0  0
   -3.0000   10.3923    0.0000 C   0  0  0  0  0  0  0  0  0  0  0  0
   -2.2500    9.0933    0.0000 C   0  0  0  0  0  0  0  0  0  0  0  0
   -3.0000    5.1962    0.0000 C   0  0  0  0  0  0  0  0  0  0  0  0
   -3.7500    3.8971    0.0000 C   0  0  0  0  0  0  0  0  0  0  0  0
   -3.0000    2.5981    0.0000 C   0  0  0  0  0  0  0  0  0  0  0  0
   -3.7500    1.2990    0.0000 O   0  0  0  0  0  0  0  0  0  0  0  0
   -5.2500    1.2990    0.0000 C   0  0  0  0  0  0  0  0  0  0  0  0
   -6.0000    0.0000    0.0000 C   0  0  0  0  0  0  0  0  0  0  0  0
   -1.5000    0.0000    0.0000 N   0  0  0  0  0  0  0  0  0  0  0  0
   -0.7500   -1.2990    0.0000 C   0  0  0  0  0  0  0  0  0  0  0  0
  1  2  1  0
  2  3  1  0
  3  4  1  0
  4  5  2  0
  5  6  1  0
  6  7  1  0
  6  8  1  0
  8  9  1  0
  9 10  2  0
  9 11  1  0
 11 12  1  0
 12 13  1  0
 13 14  2  0
 14 15  1  0
 15 16  1  0
 16 17  2  0
 16 18  2  0
 16 19  1  0
 19 20  1  0
 20 21  2  0
 21 22  1  0
 22 23  2  0
 23 24  1  0
 24 25  2  3
 25 26  1  0
 26 27  2  0
 26 28  1  0
 28 29  1  0
 23 30  1  0
 30 31  2  0
 15 32  2  0
 32 33  1  0
 33 34  2  0
 34 35  1  0
 35 36  1  0
 36 37  1  0
 12 38  2  0
 38 39  1  0
 39  4  1  0
 39  8  2  0
 34 13  1  0
 31 20  1  0
M  END
>  <molecule_chembl_id>  (387) 
CHEMBL3925737

>  <canonical_smiles>  (387) 
CCCc1nn(C)c2c(=O)[nH]c(-c3cc(S(=O)(=O)Nc4ccc(C=CC(=O)NO)cc4)ccc3OCC)nc12

>  <pchembl_value_mean>  (387) 
5.88

>  <document_chembl_id>  (387) 
CHEMBL3860059

$$$$

     RDKit          2D

 24 26  0  0  0  0  0  0  0  0999 V2000
    3.0000   -7.7942    0.0000 C   0  0  0  0  0  0  0  0  0  0  0  0
    3.7500   -6.4952    0.0000 O   0  0  0  0  0  0  0  0  0  0  0  0
    3.0000   -5.1962    0.0000 C   0  0  0  0  0  0  0  0  0  0  0  0
    1.5000   -5.1962    0.0000 C   0  0  0  0  0  0  0  0  0  0  0  0
    0.7500   -3.8971    0.0000 C   0  0  0  0  0  0  0  0  0  0  0  0
    1.5000   -2.5981    0.0000 C   0  0  0  0  0  0  0  0  0  0  0  0
    0.7500   -1.2990    0.0000 C   0  0  0  0  0  0  0  0  0  0  0  0
    1.5000    0.0000    0.0000 C   0  0  0  0  0  0  0  0  0  0  0  0
    0.7500    1.2990    0.0000 C   0  0  0  0  0  0  0  0  0  0  0  0
   -0.7500    1.2990    0.0000 C   0  0  0  0  0  0  0  0  0  0  0  0
   -1.5000    2.5981    0.0000 N   0  0  0  0  0  0  0  0  0  0  0  0
   -3.0000    2.5981    0.0000 C   0  0  0  0  0  0  0  0  0  0  0  0
   -3.7500    3.8971    0.0000 C   0  0  0  0  0  0  0  0  0  0  0  0
   -3.0000    5.1962    0.0000 C   0  0  0  0  0  0  0  0  0  0  0  0
   -3.7500    6.4952    0.0000 C   0  0  0  0  0  0  0  0  0  0  0  0
   -5.2500    6.4952    0.0000 O   0  0  0  0  0  0  0  0  0  0  0  0
   -3.0000    7.7942    0.0000 N   0  0  0  0  0  0  0  0  0  0  0  0
   -3.7500    9.0933    0.0000 O   0  0  0  0  0  0  0  0  0  0  0  0
   -3.7500    1.2990    0.0000 C   0  0  0  0  0  0  0  0  0  0  0  0
   -3.0000    0.0000    0.0000 C   0  0  0  0  0  0  0  0  0  0  0  0
   -1.5000    0.0000    0.0000 C   0  0  0  0  0  0  0  0  0  0  0  0
   -0.7500   -1.2990    0.0000 C   0  0  0  0  0  0  0  0  0  0  0  0
    3.0000   -2.5981    0.0000 C   0  0  0  0  0  0  0  0  0  0  0  0
    3.7500   -3.8971    0.0000 C   0  0  0  0  0  0  0  0  0  0  0  0
  1  2  1  0
  2  3  1  0
  3  4  2  0
  4  5  1  0
  5  6  2  0
  6  7  1  0
  7  8  2  0
  8  9  1  0
  9 10  2  0
 10 11  1  0
 11 12  2  0
 12 13  1  0
 13 14  2  3
 14 15  1  0
 15 16  2  0
 15 17  1  0
 17 18  1  0
 12 19  1  0
 19 20  2  0
 20 21  1  0
 21 22  2  0
  6 23  1  0
 23 24  2  0
 24  3  1  0
 22  7  1  0
 21 10  1  0
M  END
>  <molecule_chembl_id>  (388) 
CHEMBL4636226

>  <canonical_smiles>  (388) 
COc1ccc(-c2ccc3nc(C=CC(=O)NO)ccc3c2)cc1

>  <pchembl_value_mean>  (388) 
5.88

>  <document_chembl_id>  (388) 
CHEMBL4610053

$$$$

     RDKit          2D

 32 35  0  0  0  0  0  0  0  0999 V2000
    6.4664   -3.4354    0.0000 C   0  0  0  0  0  0  0  0  0  0  0  0
    5.4627   -4.5501    0.0000 C   0  0  0  0  0  0  0  0  0  0  0  0
    3.9955   -4.2382    0.0000 C   0  0  0  0  0  0  0  0  0  0  0  0
    2.9918   -5.3529    0.0000 N   0  0  0  0  0  0  0  0  0  0  0  0
    1.5000   -5.1962    0.0000 C   0  0  0  0  0  0  0  0  0  0  0  0
    0.7500   -3.8971    0.0000 S   0  0  0  0  0  0  0  0  0  0  0  0
    1.5000   -2.5981    0.0000 C   0  0  0  0  0  0  0  0  0  0  0  0
    0.7500   -1.2990    0.0000 C   0  0  0  0  0  0  0  0  0  0  0  0
    1.5000    0.0000    0.0000 C   0  0  0  0  0  0  0  0  0  0  0  0
    0.7500    1.2990    0.0000 C   0  0  0  0  0  0  0  0  0  0  0  0
   -0.7500    1.2990    0.0000 C   0  0  0  0  0  0  0  0  0  0  0  0
   -1.5000    2.5981    0.0000 C   0  0  0  0  0  0  0  0  0  0  0  0
   -3.0000    2.5981    0.0000 O   0  0  0  0  0  0  0  0  0  0  0  0
   -0.7500    3.8971    0.0000 N   0  0  0  0  0  0  0  0  0  0  0  0
   -1.5000    5.1962    0.0000 C   0  0  0  0  0  0  0  0  0  0  0  0
   -0.7500    6.4952    0.0000 C   0  0  0  0  0  0  0  0  0  0  0  0
   -1.5000    7.7942    0.0000 C   0  0  0  0  0  0  0  0  0  0  0  0
   -3.0000    7.7942    0.0000 C   0  0  0  0  0  0  0  0  0  0  0  0
   -3.7500    6.4952    0.0000 C   0  0  0  0  0  0  0  0  0  0  0  0
   -3.0000    5.1962    0.0000 C   0  0  0  0  0  0  0  0  0  0  0  0
   -3.7500    3.8971    0.0000 N   0  0  0  0  0  0  0  0  0  0  0  0
   -1.5000    0.0000    0.0000 C   0  0  0  0  0  0  0  0  0  0  0  0
   -0.7500   -1.2990    0.0000 C   0  0  0  0  0  0  0  0  0  0  0  0
    0.8899   -6.5665    0.0000 N   0  0  0  0  0  0  0  0  0  0  0  0
    2.0046   -7.5702    0.0000 N   0  0  0  0  0  0  0  0  0  0  0  0
    3.3037   -6.8202    0.0000 C   0  0  0  0  0  0  0  0  0  0  0  0
    4.6740   -7.4303    0.0000 C   0  0  0  0  0  0  0  0  0  0  0  0
    4.8308   -8.9221    0.0000 C   0  0  0  0  0  0  0  0  0  0  0  0
    6.2011   -9.5322    0.0000 C   0  0  0  0  0  0  0  0  0  0  0  0
    7.4146   -8.6505    0.0000 N   0  0  0  0  0  0  0  0  0  0  0  0
    7.2578   -7.1587    0.0000 C   0  0  0  0  0  0  0  0  0  0  0  0
    5.8875   -6.5486    0.0000 C   0  0  0  0  0  0  0  0  0  0  0  0
  1  2  2  0
  2  3  1  0
  3  4  1  0
  4  5  1  0
  5  6  1  0
  6  7  1  0
  7  8  1  0
  8  9  2  0
  9 10  1  0
 10 11  2  0
 11 12  1  0
 12 13  2  0
 12 14  1  0
 14 15  1  0
 15 16  2  0
 16 17  1  0
 17 18  2  0
 18 19  1  0
 19 20  2  0
 20 21  1  0
 11 22  1  0
 22 23  2  0
  5 24  2  0
 24 25  1  0
 25 26  2  0
 26 27  1  0
 27 28  2  0
 28 29  1  0
 29 30  2  0
 30 31  1  0
 31 32  2  0
 26  4  1  0
 32 27  1  0
 23  8  1  0
 20 15  1  0
M  END
>  <molecule_chembl_id>  (389) 
CHEMBL4854089

>  <canonical_smiles>  (389) 
C=CCn1c(SCc2ccc(C(=O)Nc3ccccc3N)cc2)nnc1-c1ccncc1

>  <pchembl_value_mean>  (389) 
5.89

>  <document_chembl_id>  (389) 
CHEMBL4823270

$$$$

     RDKit          2D

 36 38  0  0  0  0  0  0  0  0999 V2000
    5.2500   -3.8971    0.0000 C   0  0  0  0  0  0  0  0  0  0  0  0
    3.7500   -3.8971    0.0000 C   0  0  0  0  0  0  0  0  0  0  0  0
    3.0000   -2.5981    0.0000 O   0  0  0  0  0  0  0  0  0  0  0  0
    1.5000   -2.5981    0.0000 C   0  0  0  0  0  0  0  0  0  0  0  0
    0.7500   -3.8971    0.0000 C   0  0  0  0  0  0  0  0  0  0  0  0
   -0.7500   -3.8971    0.0000 C   0  0  0  0  0  0  0  0  0  0  0  0
   -1.5000   -5.1962    0.0000 N   0  0  0  0  0  0  0  0  0  0  0  0
   -3.0000   -5.1962    0.0000 C   0  0  0  0  0  0  0  0  0  0  0  0
   -3.7500   -3.8971    0.0000 O   0  0  0  0  0  0  0  0  0  0  0  0
   -3.7500   -6.4952    0.0000 C   0  0  0  0  0  0  0  0  0  0  0  0
   -5.2500   -6.4952    0.0000 C   0  0  0  0  0  0  0  0  0  0  0  0
   -6.0000   -7.7942    0.0000 C   0  0  0  0  0  0  0  0  0  0  0  0
   -7.5000   -7.7942    0.0000 C   0  0  0  0  0  0  0  0  0  0  0  0
   -8.2500   -9.0933    0.0000 C   0  0  0  0  0  0  0  0  0  0  0  0
   -9.7500   -9.0933    0.0000 N   0  0  0  0  0  0  0  0  0  0  0  0
  -10.5000  -10.3923    0.0000 C   0  0  0  0  0  0  0  0  0  0  0  0
   -9.7500  -11.6913    0.0000 O   0  0  0  0  0  0  0  0  0  0  0  0
  -12.0000  -10.3923    0.0000 C   0  0  0  0  0  0  0  0  0  0  0  0
  -12.7500   -9.0933    0.0000 N   0  0  0  0  0  0  0  0  0  0  0  0
  -12.7500  -11.6913    0.0000 C   0  0  0  0  0  0  0  0  0  0  0  0
  -14.2500  -11.6913    0.0000 C   0  0  0  0  0  0  0  0  0  0  0  0
  -15.0000  -10.3923    0.0000 C   0  0  0  0  0  0  0  0  0  0  0  0
  -16.5000  -10.3923    0.0000 C   0  0  0  0  0  0  0  0  0  0  0  0
  -17.2500  -11.6913    0.0000 C   0  0  0  0  0  0  0  0  0  0  0  0
  -16.5000  -12.9904    0.0000 C   0  0  0  0  0  0  0  0  0  0  0  0
  -15.0000  -12.9904    0.0000 C   0  0  0  0  0  0  0  0  0  0  0  0
   -1.5000   -2.5981    0.0000 C   0  0  0  0  0  0  0  0  0  0  0  0
   -0.7500   -1.2990    0.0000 C   0  0  0  0  0  0  0  0  0  0  0  0
    0.7500   -1.2990    0.0000 C   0  0  0  0  0  0  0  0  0  0  0  0
    1.5000    0.0000    0.0000 O   0  0  0  0  0  0  0  0  0  0  0  0
    0.7500    1.2990    0.0000 C   0  0  0  0  0  0  0  0  0  0  0  0
   -0.7500    1.2990    0.0000 C   0  0  0  0  0  0  0  0  0  0  0  0
   -1.5000    2.5981    0.0000 N   0  0  0  0  0  4  0  0  0  0  0  0
   -3.0000    2.5981    0.0000 O   0  0  0  0  0  0  0  0  0  0  0  0
   -0.7500    3.8971    0.0000 O   0  0  0  0  0  1  0  0  0  0  0  0
   -1.5000    0.0000    0.0000 C   0  0  0  0  0  0  0  0  0  0  0  0
  1  2  1  0
  2  3  1  0
  3  4  1  0
  4  5  2  0
  5  6  1  0
  6  7  1  0
  7  8  1  0
  8  9  2  0
  8 10  1  0
 10 11  1  0
 11 12  1  0
 12 13  1  0
 13 14  1  0
 14 15  1  0
 15 16  1  0
 16 17  2  0
 16 18  1  0
 18 19  1  0
 18 20  1  0
 20 21  1  0
 21 22  2  0
 22 23  1  0
 23 24  2  0
 24 25  1  0
 25 26  2  0
  6 27  2  0
 27 28  1  0
 28 29  2  0
 29 30  1  0
 30 31  1  0
 31 32  1  0
 32 33  1  0
 33 34  2  0
 33 35  1  0
 32 36  2  0
 29  4  1  0
 26 21  1  0
 36 28  1  0
M  CHG  2  33   1  35  -1
M  END
>  <molecule_chembl_id>  (390) 
CHEMBL4075124

>  <canonical_smiles>  (390) 
CCOc1cc(NC(=O)CCCCCNC(=O)C(N)Cc2ccccc2)cc2c1OCC([N+](=O)[O-])=C2

>  <pchembl_value_mean>  (390) 
5.89

>  <document_chembl_id>  (390) 
CHEMBL4052685

$$$$

     RDKit          2D

 25 26  0  0  0  0  0  0  0  0999 V2000
    2.0490   -4.6471    0.0000 C   0  0  0  0  0  0  0  0  0  0  0  0
    0.7500   -3.8971    0.0000 C   0  0  0  0  0  0  0  0  0  0  0  0
   -0.5490   -3.1471    0.0000 C   0  0  0  0  0  0  0  0  0  0  0  0
    1.5000   -2.5981    0.0000 N   0  0  0  0  0  0  0  0  0  0  0  0
    0.7500   -1.2990    0.0000 C   0  0  0  0  0  0  0  0  0  0  0  0
    1.5000    0.0000    0.0000 N   0  0  0  0  0  0  0  0  0  0  0  0
    0.7500    1.2990    0.0000 C   0  0  0  0  0  0  0  0  0  0  0  0
   -0.7500    1.2990    0.0000 C   0  0  0  0  0  0  0  0  0  0  0  0
   -1.5000    2.5981    0.0000 C   0  0  0  0  0  0  0  0  0  0  0  0
   -3.0000    2.5981    0.0000 O   0  0  0  0  0  0  0  0  0  0  0  0
   -0.7500    3.8971    0.0000 N   0  0  0  0  0  0  0  0  0  0  0  0
   -1.5000    5.1962    0.0000 O   0  0  0  0  0  0  0  0  0  0  0  0
   -1.5000    0.0000    0.0000 C   0  0  0  0  0  0  0  0  0  0  0  0
   -0.7500   -1.2990    0.0000 N   0  0  0  0  0  0  0  0  0  0  0  0
   -0.0000   -5.1962    0.0000 C   0  0  0  0  0  0  0  0  0  0  0  0
   -1.5000   -5.1962    0.0000 C   0  0  0  0  0  0  0  0  0  0  0  0
   -2.2500   -6.4952    0.0000 C   0  0  0  0  0  0  0  0  0  0  0  0
   -1.5000   -7.7942    0.0000 C   0  0  0  0  0  0  0  0  0  0  0  0
   -2.2500   -9.0933    0.0000 C   0  0  0  0  0  0  0  0  0  0  0  0
   -3.0000  -10.3923    0.0000 F   0  0  0  0  0  0  0  0  0  0  0  0
   -3.5490   -8.3433    0.0000 F   0  0  0  0  0  0  0  0  0  0  0  0
   -0.9510   -9.8433    0.0000 F   0  0  0  0  0  0  0  0  0  0  0  0
   -0.0000   -7.7942    0.0000 C   0  0  0  0  0  0  0  0  0  0  0  0
    0.7500   -6.4952    0.0000 C   0  0  0  0  0  0  0  0  0  0  0  0
    2.2500   -6.4952    0.0000 F   0  0  0  0  0  0  0  0  0  0  0  0
  1  2  1  0
  2  3  1  0
  2  4  1  0
  4  5  1  0
  5  6  2  0
  6  7  1  0
  7  8  2  0
  8  9  1  0
  9 10  2  0
  9 11  1  0
 11 12  1  0
  8 13  1  0
 13 14  2  0
  2 15  1  0
 15 16  2  0
 16 17  1  0
 17 18  2  0
 18 19  1  0
 19 20  1  0
 19 21  1  0
 19 22  1  0
 18 23  1  0
 23 24  2  0
 24 25  1  0
 14  5  1  0
 24 15  1  0
M  END
>  <molecule_chembl_id>  (391) 
CHEMBL3655963

>  <canonical_smiles>  (391) 
CC(C)(Nc1ncc(C(=O)NO)cn1)c1ccc(C(F)(F)F)cc1F

>  <pchembl_value_mean>  (391) 
5.89

>  <document_chembl_id>  (391) 
CHEMBL3639071

$$$$

     RDKit          2D

 23 23  0  0  0  0  0  0  0  0999 V2000
   12.0000   -5.1962    0.0000 C   0  0  0  0  0  0  0  0  0  0  0  0
   10.5000   -5.1962    0.0000 C   0  0  0  0  0  0  0  0  0  0  0  0
    9.7500   -3.8971    0.0000 C   0  0  0  0  0  0  0  0  0  0  0  0
    8.2500   -3.8971    0.0000 C   0  0  0  0  0  0  0  0  0  0  0  0
    7.5000   -2.5981    0.0000 C   0  0  0  0  0  0  0  0  0  0  0  0
    8.2500   -1.2990    0.0000 C   0  0  0  0  0  0  0  0  0  0  0  0
    9.7500   -1.2990    0.0000 C   0  0  0  0  0  0  0  0  0  0  0  0
   10.5000    0.0000    0.0000 C   0  0  0  0  0  0  0  0  0  0  0  0
   12.0000    0.0000    0.0000 C   0  0  0  0  0  0  0  0  0  0  0  0
   12.7500   -1.2990    0.0000 O   0  0  0  0  0  0  0  0  0  0  0  0
   12.7500    1.2990    0.0000 N   0  0  0  0  0  0  0  0  0  0  0  0
   14.2500    1.2990    0.0000 O   0  0  0  0  0  0  0  0  0  0  0  0
    6.0000   -2.5981    0.0000 C   0  0  0  0  0  0  0  0  0  0  0  0
    5.2500   -1.2990    0.0000 C   0  0  0  0  0  0  0  0  0  0  0  0
    3.7500   -1.2990    0.0000 C   0  0  0  0  0  0  0  0  0  0  0  0
    3.0000   -2.5981    0.0000 O   0  0  0  0  0  0  0  0  0  0  0  0
    3.0000    0.0000    0.0000 N   0  0  0  0  0  0  0  0  0  0  0  0
    1.5000    0.0000    0.0000 C   0  0  0  0  0  0  0  0  0  0  0  0
    0.7500   -1.2990    0.0000 C   0  0  0  0  0  0  0  0  0  0  0  0
   -0.7500   -1.2990    0.0000 C   0  0  0  0  0  0  0  0  0  0  0  0
   -1.5000    0.0000    0.0000 C   0  0  0  0  0  0  0  0  0  0  0  0
   -0.7500    1.2990    0.0000 C   0  0  0  0  0  0  0  0  0  0  0  0
    0.7500    1.2990    0.0000 C   0  0  0  0  0  0  0  0  0  0  0  0
  1  2  1  0
  2  3  1  0
  3  4  1  0
  4  5  1  0
  5  6  1  0
  6  7  1  0
  7  8  1  0
  8  9  1  0
  9 10  2  0
  9 11  1  0
 11 12  1  0
  5 13  1  0
 13 14  1  0
 14 15  1  0
 15 16  2  0
 15 17  1  0
 17 18  1  0
 18 19  2  0
 19 20  1  0
 20 21  2  0
 21 22  1  0
 22 23  2  0
 23 18  1  0
M  END
>  <molecule_chembl_id>  (392) 
CHEMBL4086409

>  <canonical_smiles>  (392) 
CCCCC(CCCC(=O)NO)CCC(=O)Nc1ccccc1

>  <pchembl_value_mean>  (392) 
5.89

>  <document_chembl_id>  (392) 
CHEMBL4052702

$$$$

     RDKit          2D

 22 23  0  0  0  0  0  0  0  0999 V2000
    3.0000    0.0000    0.0000 N   0  0  0  0  0  0  0  0  0  0  0  0
    1.5000    0.0000    0.0000 C   0  0  0  0  0  0  0  0  0  0  0  0
    0.7500   -1.2990    0.0000 C   0  0  0  0  0  0  0  0  0  0  0  0
   -0.7500   -1.2990    0.0000 C   0  0  0  0  0  0  0  0  0  0  0  0
   -1.5000    0.0000    0.0000 C   0  0  0  0  0  0  0  0  0  0  0  0
   -0.7500    1.2990    0.0000 C   0  0  0  0  0  0  0  0  0  0  0  0
    0.7500    1.2990    0.0000 C   0  0  0  0  0  0  0  0  0  0  0  0
    1.5000    2.5981    0.0000 N   0  0  0  0  0  0  0  0  0  0  0  0
    0.7500    3.8971    0.0000 C   0  0  0  0  0  0  0  0  0  0  0  0
   -0.7500    3.8971    0.0000 O   0  0  0  0  0  0  0  0  0  0  0  0
    1.5000    5.1962    0.0000 C   0  0  0  0  0  0  0  0  0  0  0  0
    0.7500    6.4952    0.0000 C   0  0  0  0  0  0  0  0  0  0  0  0
    1.5000    7.7942    0.0000 C   0  0  0  0  0  0  0  0  0  0  0  0
    0.7500    9.0933    0.0000 C   0  0  0  0  0  0  0  0  0  0  0  0
    1.5000   10.3923    0.0000 C   0  0  0  0  0  0  0  0  0  0  0  0
    0.7500   11.6913    0.0000 N   0  0  0  0  0  0  0  0  0  0  0  0
    1.5000   12.9904    0.0000 C   0  0  0  0  0  0  0  0  0  0  0  0
    3.0000   12.9904    0.0000 C   0  0  0  0  0  0  0  0  0  0  0  0
    3.7500   14.2894    0.0000 C   0  0  0  0  0  0  0  0  0  0  0  0
    3.0000   15.5885    0.0000 C   0  0  0  0  0  0  0  0  0  0  0  0
    1.5000   15.5885    0.0000 C   0  0  0  0  0  0  0  0  0  0  0  0
    0.7500   14.2894    0.0000 C   0  0  0  0  0  0  0  0  0  0  0  0
  1  2  1  0
  2  3  2  0
  3  4  1  0
  4  5  2  0
  5  6  1  0
  6  7  2  0
  7  8  1  0
  8  9  1  0
  9 10  2  0
  9 11  1  0
 11 12  1  0
 12 13  1  0
 13 14  1  0
 14 15  1  0
 15 16  1  0
 16 17  1  0
 17 18  2  0
 18 19  1  0
 19 20  2  0
 20 21  1  0
 21 22  2  0
  7  2  1  0
 22 17  1  0
M  END
>  <molecule_chembl_id>  (393) 
CHEMBL4438474

>  <canonical_smiles>  (393) 
Nc1ccccc1NC(=O)CCCCCNc1ccccc1

>  <pchembl_value_mean>  (393) 
5.89

>  <document_chembl_id>  (393) 
CHEMBL4351000

$$$$

     RDKit          2D

 16 16  0  0  0  0  0  0  0  0999 V2000
    3.0000   -2.5981    0.0000 O   0  0  0  0  0  0  0  0  0  0  0  0
    3.7500   -1.2990    0.0000 C   0  0  0  0  0  0  0  0  0  0  0  0
    5.2500   -1.2990    0.0000 C   0  0  0  0  0  0  0  0  0  0  0  0
    6.0000   -2.5981    0.0000 C   0  0  0  0  0  0  0  0  0  0  0  0
    7.5000   -2.5981    0.0000 C   0  0  0  0  0  0  0  0  0  0  0  0
    8.2500   -3.8971    0.0000 C   0  0  0  0  0  0  0  0  0  0  0  0
    9.7500   -3.8971    0.0000 C   0  0  0  0  0  0  0  0  0  0  0  0
   10.5000   -5.1962    0.0000 C   0  0  0  0  0  0  0  0  0  0  0  0
   12.0000   -5.1962    0.0000 S   0  0  0  0  0  0  0  0  0  0  0  0
    3.0000    0.0000    0.0000 N   0  0  0  0  0  0  0  0  0  0  0  0
    1.5000    0.0000    0.0000 C   0  0  0  0  0  0  0  0  0  0  0  0
    0.7500   -1.2990    0.0000 C   0  0  0  0  0  0  0  0  0  0  0  0
   -0.7500   -1.2990    0.0000 C   0  0  0  0  0  0  0  0  0  0  0  0
   -1.5000    0.0000    0.0000 C   0  0  0  0  0  0  0  0  0  0  0  0
   -0.7500    1.2990    0.0000 C   0  0  0  0  0  0  0  0  0  0  0  0
    0.7500    1.2990    0.0000 C   0  0  0  0  0  0  0  0  0  0  0  0
  1  2  2  0
  2  3  1  0
  3  4  1  0
  4  5  1  0
  5  6  1  0
  6  7  1  0
  7  8  1  0
  8  9  1  0
  2 10  1  0
 10 11  1  0
 11 12  2  0
 12 13  1  0
 13 14  2  0
 14 15  1  0
 15 16  2  0
 16 11  1  0
M  END
>  <molecule_chembl_id>  (394) 
CHEMBL325676

>  <canonical_smiles>  (394) 
O=C(CCCCCCS)Nc1ccccc1

>  <pchembl_value_mean>  (394) 
5.89

>  <document_chembl_id>  (394) 
CHEMBL3352570

$$$$

     RDKit          2D

 64 69  0  0  0  0  0  0  0  0999 V2000
    1.5922    6.6948    0.0000 C   0  0  0  0  0  0  0  0  0  0  0  0
    0.1004    6.8516    0.0000 C   0  0  0  0  0  0  0  0  0  0  0  0
   -0.5097    8.2219    0.0000 C   0  0  0  0  0  0  0  0  0  0  0  0
   -0.7813    5.6380    0.0000 C   0  0  0  0  0  0  0  0  0  0  0  0
    0.2369    4.5365    0.0000 N   0  0  0  0  0  0  0  0  0  0  0  0
    0.7561    3.1293    0.0000 C   0  0  0  0  0  0  0  0  0  0  0  0
    2.2376    3.3639    0.0000 O   0  0  0  0  0  0  0  0  0  0  0  0
    0.3943    1.2135    0.0000 C   0  0  0  0  0  0  0  0  0  0  0  0
    0.4790    2.4256    0.0000 C   0  0  0  0  0  0  0  0  0  0  0  0
    1.2760    0.0000    0.0000 C   0  0  0  0  0  0  0  0  0  0  0  0
    0.3943   -1.2135    0.0000 S   0  0  0  0  0  0  0  0  0  0  0  0
   -1.0323   -0.7500    0.0000 C   0  0  0  0  0  0  0  0  0  0  0  0
   -1.0323    0.7500    0.0000 N   0  0  0  0  0  0  0  0  0  0  0  0
   -2.4396   -1.2692    0.0000 C   0  0  0  0  0  0  0  0  0  0  0  0
   -3.2233   -2.5481    0.0000 C   0  0  0  0  0  0  0  0  0  0  0  0
   -4.6819   -2.1980    0.0000 O   0  0  0  0  0  0  0  0  0  0  0  0
   -5.3006   -0.5823    0.0000 C   0  0  0  0  0  0  0  0  0  0  0  0
   -3.9384   -1.2103    0.0000 N   0  0  0  0  0  0  0  0  0  0  0  0
   -6.3188    0.5192    0.0000 C   0  0  0  0  0  0  0  0  0  0  0  0
   -6.8380    1.9265    0.0000 N   0  0  0  0  0  0  0  0  0  0  0  0
   -6.7791    3.4253    0.0000 C   0  0  0  0  0  0  0  0  0  0  0  0
   -8.2377    3.7755    0.0000 O   0  0  0  0  0  0  0  0  0  0  0  0
   -6.1511    4.7875    0.0000 C   0  0  0  0  0  0  0  0  0  0  0  0
   -5.0496    5.8057    0.0000 C   0  0  0  0  0  0  0  0  0  0  0  0
   -5.8334    7.0847    0.0000 C   0  0  0  0  0  0  0  0  0  0  0  0
   -5.1177    8.4029    0.0000 C   0  0  0  0  0  0  0  0  0  0  0  0
   -5.9014    9.6819    0.0000 C   0  0  0  0  0  0  0  0  0  0  0  0
   -5.1857   11.0001    0.0000 C   0  0  0  0  0  0  0  0  0  0  0  0
   -5.9694   12.2791    0.0000 S   0  0  0  0  0  0  0  0  0  0  0  0
   -5.2537   13.5973    0.0000 S   0  0  0  0  0  0  0  0  0  0  0  0
   -6.0374   14.8763    0.0000 C   0  0  0  0  0  0  0  0  0  0  0  0
   -5.3217   16.1945    0.0000 C   0  0  0  0  0  0  0  0  0  0  0  0
   -6.1054   17.4734    0.0000 C   0  0  0  0  0  0  0  0  0  0  0  0
   -5.3897   18.7917    0.0000 C   0  0  0  0  0  0  0  0  0  0  0  0
   -6.1734   20.0706    0.0000 C   0  0  0  0  0  0  0  0  0  0  0  0
   -5.0720   21.0888    0.0000 C   0  0  0  0  0  0  0  0  0  0  0  0
   -4.4440   22.4510    0.0000 C   0  0  0  0  0  0  0  0  0  0  0  0
   -2.9854   22.1009    0.0000 O   0  0  0  0  0  0  0  0  0  0  0  0
   -4.3851   23.9499    0.0000 N   0  0  0  0  0  0  0  0  0  0  0  0
   -4.9043   25.3572    0.0000 C   0  0  0  0  0  0  0  0  0  0  0  0
   -5.9225   26.4587    0.0000 C   0  0  0  0  0  0  0  0  0  0  0  0
   -7.3083   25.8846    0.0000 N   0  0  0  0  0  0  0  0  0  0  0  0
   -8.2824   27.0252    0.0000 C   0  0  0  0  0  0  0  0  0  0  0  0
   -7.4987   28.3042    0.0000 C   0  0  0  0  0  0  0  0  0  0  0  0
   -6.0401   27.9540    0.0000 O   0  0  0  0  0  0  0  0  0  0  0  0
  -10.1908   26.6264    0.0000 C   0  0  0  0  0  0  0  0  0  0  0  0
  -11.2923   25.6082    0.0000 N   0  0  0  0  0  0  0  0  0  0  0  0
  -11.9203   24.2459    0.0000 C   0  0  0  0  0  0  0  0  0  0  0  0
  -13.3788   24.5961    0.0000 C   0  0  0  0  0  0  0  0  0  0  0  0
  -12.8020   25.4595    0.0000 C   0  0  0  0  0  0  0  0  0  0  0  0
  -11.9203   26.6730    0.0000 S   0  0  0  0  0  0  0  0  0  0  0  0
  -11.9792   22.7471    0.0000 C   0  0  0  0  0  0  0  0  0  0  0  0
  -13.4607   22.5124    0.0000 O   0  0  0  0  0  0  0  0  0  0  0  0
  -11.4600   21.3398    0.0000 N   0  0  0  0  0  0  0  0  0  0  0  0
  -10.4418   20.2383    0.0000 C   0  0  0  0  0  0  0  0  0  0  0  0
  -11.3235   19.0248    0.0000 C   0  0  0  0  0  0  0  0  0  0  0  0
  -12.8152   19.1816    0.0000 C   0  0  0  0  0  0  0  0  0  0  0  0
  -10.7134   17.6545    0.0000 C   0  0  0  0  0  0  0  0  0  0  0  0
   -9.0796   19.6103    0.0000 C   0  0  0  0  0  0  0  0  0  0  0  0
   -9.4297   18.1518    0.0000 O   0  0  0  0  0  0  0  0  0  0  0  0
   -7.5807   19.5514    0.0000 O   0  0  0  0  0  0  0  0  0  0  0  0
   -3.6424    6.3249    0.0000 O   0  0  0  0  0  0  0  0  0  0  0  0
   -2.1435    6.2660    0.0000 C   0  0  0  0  0  0  0  0  0  0  0  0
   -1.7933    7.7246    0.0000 O   0  0  0  0  0  0  0  0  0  0  0  0
  1  2  1  0
  2  3  1  0
  2  4  1  0
  4  5  1  0
  5  6  1  0
  6  7  2  0
  6  8  1  0
  8  9  1  0
  8 10  1  0
 10 11  1  0
 11 12  1  0
 12 13  2  0
 12 14  1  0
 14 15  2  0
 15 16  1  0
 16 17  1  0
 17 18  2  0
 17 19  1  0
 19 20  1  0
 20 21  1  0
 21 22  2  0
 21 23  1  0
 23 24  1  0
 24 25  1  0
 25 26  2  3
 26 27  1  0
 27 28  1  0
 28 29  1  0
 29 30  1  0
 30 31  1  0
 31 32  1  0
 32 33  1  0
 33 34  2  3
 34 35  1  0
 35 36  1  0
 36 37  1  0
 37 38  2  0
 37 39  1  0
 39 40  1  0
 40 41  1  0
 41 42  2  0
 42 43  1  0
 43 44  2  0
 44 45  1  0
 43 46  1  0
 46 47  2  0
 47 48  1  0
 48 49  1  0
 48 50  1  0
 50 51  1  0
 48 52  1  0
 52 53  2  0
 52 54  1  0
 54 55  1  0
 55 56  1  0
 56 57  1  0
 56 58  1  0
 55 59  1  0
 59 60  2  0
 59 61  1  0
 24 62  1  0
 62 63  1  0
 63 64  2  0
 63  4  1  0
 13  8  1  0
 18 14  1  0
 61 35  1  0
 45 41  1  0
 51 46  1  0
M  END
>  <molecule_chembl_id>  (395) 
CHEMBL2436596

>  <canonical_smiles>  (395) 
CC(C)C1NC(=O)C2(C)CSC(=N2)c2coc(n2)CNC(=O)CC(C=CCCSSCCC=CC2CC(=O)NCc3nc(co3)C3=NC(C)(CS3)C(=O)NC(C(C)C)C(=O)O2)OC1=O

>  <pchembl_value_mean>  (395) 
5.89

>  <document_chembl_id>  (395) 
CHEMBL2434914

$$$$

     RDKit          2D

 36 38  0  0  0  0  0  0  0  0999 V2000
  -19.1354   -5.8170    0.0000 C   0  0  0  0  0  0  0  0  0  0  0  0
  -18.0207   -6.8207    0.0000 C   0  0  0  0  0  0  0  0  0  0  0  0
  -16.5941   -6.3572    0.0000 C   0  0  0  0  0  0  0  0  0  0  0  0
  -15.4794   -7.3609    0.0000 N   0  0  0  0  0  0  0  0  0  0  0  0
  -14.0528   -6.8974    0.0000 N   0  0  0  0  0  0  0  0  0  0  0  0
  -12.9381   -7.9010    0.0000 C   0  0  0  0  0  0  0  0  0  0  0  0
  -13.2499   -9.3683    0.0000 O   0  0  0  0  0  0  0  0  0  0  0  0
  -11.5115   -7.4375    0.0000 C   0  0  0  0  0  0  0  0  0  0  0  0
  -10.3968   -8.4412    0.0000 C   0  0  0  0  0  0  0  0  0  0  0  0
   -8.9702   -7.9777    0.0000 C   0  0  0  0  0  0  0  0  0  0  0  0
   -8.6583   -6.5105    0.0000 C   0  0  0  0  0  0  0  0  0  0  0  0
   -7.2317   -6.0469    0.0000 C   0  0  0  0  0  0  0  0  0  0  0  0
   -6.1170   -7.0506    0.0000 C   0  0  0  0  0  0  0  0  0  0  0  0
   -4.6904   -6.5871    0.0000 C   0  0  0  0  0  0  0  0  0  0  0  0
   -4.3786   -5.1199    0.0000 N   0  0  0  0  0  0  0  0  0  0  0  0
   -2.9520   -4.6564    0.0000 C   0  0  0  0  0  0  0  0  0  0  0  0
   -2.6401   -3.1891    0.0000 C   0  0  0  0  0  0  0  0  0  0  0  0
   -1.2135   -2.7256    0.0000 C   0  0  0  0  0  0  0  0  0  0  0  0
   -0.0000   -3.6073    0.0000 C   0  0  0  0  0  0  0  0  0  0  0  0
    0.0000   -5.1073    0.0000 C   0  0  0  0  0  0  0  0  0  0  0  0
    1.2135   -2.7256    0.0000 N   0  0  0  0  0  0  0  0  0  0  0  0
    0.7500   -1.2990    0.0000 C   0  0  0  0  0  0  0  0  0  0  0  0
    1.5000    0.0000    0.0000 C   0  0  0  0  0  0  0  0  0  0  0  0
    0.7500    1.2990    0.0000 C   0  0  0  0  0  0  0  0  0  0  0  0
   -0.7500    1.2990    0.0000 C   0  0  0  0  0  0  0  0  0  0  0  0
   -1.5000    0.0000    0.0000 C   0  0  0  0  0  0  0  0  0  0  0  0
   -0.7500   -1.2990    0.0000 C   0  0  0  0  0  0  0  0  0  0  0  0
   -5.4933   -4.1162    0.0000 C   0  0  0  0  0  0  0  0  0  0  0  0
   -5.1814   -2.6490    0.0000 O   0  0  0  0  0  0  0  0  0  0  0  0
   -6.9199   -4.5797    0.0000 O   0  0  0  0  0  0  0  0  0  0  0  0
   -8.0346   -3.5760    0.0000 C   0  0  0  0  0  0  0  0  0  0  0  0
   -9.0383   -4.6907    0.0000 C   0  0  0  0  0  0  0  0  0  0  0  0
   -7.0309   -2.4613    0.0000 C   0  0  0  0  0  0  0  0  0  0  0  0
   -9.1493   -2.5723    0.0000 C   0  0  0  0  0  0  0  0  0  0  0  0
   -6.4289   -8.5179    0.0000 C   0  0  0  0  0  0  0  0  0  0  0  0
   -7.8555   -8.9814    0.0000 C   0  0  0  0  0  0  0  0  0  0  0  0
  1  2  1  0
  2  3  1  0
  3  4  1  0
  4  5  1  0
  5  6  1  0
  6  7  2  0
  6  8  1  0
  8  9  2  3
  9 10  1  0
 10 11  2  0
 11 12  1  0
 12 13  2  0
 13 14  1  0
 14 15  1  0
 15 16  1  0
 16 17  1  0
 17 18  1  0
 18 19  2  0
 19 20  1  0
 19 21  1  0
 21 22  1  0
 22 23  2  0
 23 24  1  0
 24 25  2  0
 25 26  1  0
 26 27  2  0
 15 28  1  0
 28 29  2  0
 28 30  1  0
 30 31  1  0
 31 32  1  0
 31 33  1  0
 31 34  1  0
 13 35  1  0
 35 36  2  0
 36 10  1  0
 27 18  1  0
 27 22  1  0
M  END
>  <molecule_chembl_id>  (396) 
CHEMBL4580907

>  <canonical_smiles>  (396) 
CCCNNC(=O)C=Cc1ccc(CN(CCc2c(C)[nH]c3ccccc23)C(=O)OC(C)(C)C)cc1

>  <pchembl_value_mean>  (396) 
5.89

>  <document_chembl_id>  (396) 
CHEMBL4342521

$$$$

     RDKit          2D

 25 26  0  0  0  0  0  0  0  0999 V2000
    3.7500   -1.2990    0.0000 C   0  0  0  0  0  0  0  0  0  0  0  0
    3.0000    0.0000    0.0000 O   0  0  0  0  0  0  0  0  0  0  0  0
    1.5000    0.0000    0.0000 C   0  0  0  0  0  0  0  0  0  0  0  0
    0.7500   -1.2990    0.0000 C   0  0  0  0  0  0  0  0  0  0  0  0
   -0.7500   -1.2990    0.0000 C   0  0  0  0  0  0  0  0  0  0  0  0
   -1.5000   -2.5981    0.0000 C   0  0  0  0  0  0  0  0  0  0  0  0
   -3.0000   -2.5981    0.0000 N   0  0  0  0  0  0  0  0  0  0  0  0
   -3.7500   -3.8971    0.0000 C   0  0  0  0  0  0  0  0  0  0  0  0
   -5.2500   -3.8971    0.0000 C   0  0  0  0  0  0  0  0  0  0  0  0
   -6.0000   -2.5981    0.0000 C   0  0  0  0  0  0  0  0  0  0  0  0
   -7.5000   -2.5981    0.0000 C   0  0  0  0  0  0  0  0  0  0  0  0
   -8.2500   -3.8971    0.0000 C   0  0  0  0  0  0  0  0  0  0  0  0
   -9.7500   -3.8971    0.0000 C   0  0  0  0  0  0  0  0  0  0  0  0
  -10.5000   -2.5981    0.0000 C   0  0  0  0  0  0  0  0  0  0  0  0
  -12.0000   -2.5981    0.0000 C   0  0  0  0  0  0  0  0  0  0  0  0
  -12.7500   -3.8971    0.0000 O   0  0  0  0  0  0  0  0  0  0  0  0
  -12.7500   -1.2990    0.0000 N   0  0  0  0  0  0  0  0  0  0  0  0
  -14.2500   -1.2990    0.0000 O   0  0  0  0  0  0  0  0  0  0  0  0
   -7.5000   -5.1962    0.0000 C   0  0  0  0  0  0  0  0  0  0  0  0
   -6.0000   -5.1962    0.0000 C   0  0  0  0  0  0  0  0  0  0  0  0
   -1.5000    0.0000    0.0000 C   0  0  0  0  0  0  0  0  0  0  0  0
   -0.7500    1.2990    0.0000 C   0  0  0  0  0  0  0  0  0  0  0  0
   -1.5000    2.5981    0.0000 O   0  0  0  0  0  0  0  0  0  0  0  0
   -0.7500    3.8971    0.0000 C   0  0  0  0  0  0  0  0  0  0  0  0
    0.7500    1.2990    0.0000 C   0  0  0  0  0  0  0  0  0  0  0  0
  1  2  1  0
  2  3  1  0
  3  4  2  0
  4  5  1  0
  5  6  1  0
  6  7  1  0
  7  8  1  0
  8  9  1  0
  9 10  2  0
 10 11  1  0
 11 12  2  0
 12 13  1  0
 13 14  2  3
 14 15  1  0
 15 16  2  0
 15 17  1  0
 17 18  1  0
 12 19  1  0
 19 20  2  0
  5 21  2  0
 21 22  1  0
 22 23  1  0
 23 24  1  0
 22 25  2  0
 25  3  1  0
 20  9  1  0
M  END
>  <molecule_chembl_id>  (397) 
CHEMBL4518387

>  <canonical_smiles>  (397) 
COc1cc(CNCc2ccc(C=CC(=O)NO)cc2)cc(OC)c1

>  <pchembl_value_mean>  (397) 
5.9

>  <document_chembl_id>  (397) 
CHEMBL4385666

$$$$

     RDKit          2D

 33 36  0  0  0  0  0  0  0  0999 V2000
    3.7500    1.2990    0.0000 O   0  0  0  0  0  0  0  0  0  0  0  0
    3.0000    0.0000    0.0000 C   0  0  0  0  0  0  0  0  0  0  0  0
    3.7500   -1.2990    0.0000 N   0  0  0  0  0  0  0  0  0  0  0  0
    5.2500   -1.2990    0.0000 O   0  0  0  0  0  0  0  0  0  0  0  0
    1.5000    0.0000    0.0000 C   0  0  0  0  0  0  0  0  0  0  0  0
    0.7500   -1.2990    0.0000 C   0  0  0  0  0  0  0  0  0  0  0  0
   -0.7500   -1.2990    0.0000 C   0  0  0  0  0  0  0  0  0  0  0  0
   -1.5000    0.0000    0.0000 C   0  0  0  0  0  0  0  0  0  0  0  0
   -3.0000    0.0000    0.0000 C   0  0  0  0  0  0  0  0  0  0  0  0
   -3.7500    1.2990    0.0000 N   0  0  0  0  0  0  0  0  0  0  0  0
   -5.2500    1.2990    0.0000 C   0  0  0  0  0  0  0  0  0  0  0  0
   -6.0000    0.0000    0.0000 O   0  0  0  0  0  0  0  0  0  0  0  0
   -6.0000    2.5981    0.0000 C   0  0  0  0  0  0  0  0  0  0  0  0
   -7.4918    2.7549    0.0000 N   0  0  0  0  0  0  0  0  0  0  0  0
   -7.8037    4.2221    0.0000 C   0  0  0  0  0  0  0  0  0  0  0  0
   -9.1740    4.8322    0.0000 C   0  0  0  0  0  0  0  0  0  0  0  0
   -9.3308    6.3240    0.0000 C   0  0  0  0  0  0  0  0  0  0  0  0
  -10.7011    6.9341    0.0000 C   0  0  0  0  0  0  0  0  0  0  0  0
  -11.9146    6.0524    0.0000 C   0  0  0  0  0  0  0  0  0  0  0  0
  -13.2849    6.6625    0.0000 F   0  0  0  0  0  0  0  0  0  0  0  0
  -11.7578    4.5606    0.0000 C   0  0  0  0  0  0  0  0  0  0  0  0
  -10.3875    3.9505    0.0000 C   0  0  0  0  0  0  0  0  0  0  0  0
   -6.5046    4.9721    0.0000 C   0  0  0  0  0  0  0  0  0  0  0  0
   -5.3899    3.9684    0.0000 C   0  0  0  0  0  0  0  0  0  0  0  0
   -3.9227    4.2803    0.0000 C   0  0  0  0  0  0  0  0  0  0  0  0
   -2.9190    3.1655    0.0000 C   0  0  0  0  0  0  0  0  0  0  0  0
   -1.4518    3.4774    0.0000 C   0  0  0  0  0  0  0  0  0  0  0  0
   -0.9882    4.9040    0.0000 C   0  0  0  0  0  0  0  0  0  0  0  0
    0.4790    5.2159    0.0000 F   0  0  0  0  0  0  0  0  0  0  0  0
   -1.9919    6.0187    0.0000 C   0  0  0  0  0  0  0  0  0  0  0  0
   -3.4591    5.7068    0.0000 C   0  0  0  0  0  0  0  0  0  0  0  0
   -0.7500    1.2990    0.0000 C   0  0  0  0  0  0  0  0  0  0  0  0
    0.7500    1.2990    0.0000 C   0  0  0  0  0  0  0  0  0  0  0  0
  1  2  2  0
  2  3  1  0
  3  4  1  0
  2  5  1  0
  5  6  2  0
  6  7  1  0
  7  8  2  0
  8  9  1  0
  9 10  1  0
 10 11  1  0
 11 12  2  0
 11 13  1  0
 13 14  1  0
 14 15  1  0
 15 16  1  0
 16 17  2  0
 17 18  1  0
 18 19  2  0
 19 20  1  0
 19 21  1  0
 21 22  2  0
 15 23  2  0
 23 24  1  0
 24 25  1  0
 25 26  2  0
 26 27  1  0
 27 28  2  0
 28 29  1  0
 28 30  1  0
 30 31  2  0
  8 32  1  0
 32 33  2  0
 33  5  1  0
 24 13  2  0
 31 25  1  0
 22 16  1  0
M  END
>  <molecule_chembl_id>  (398) 
CHEMBL3670670

>  <canonical_smiles>  (398) 
O=C(NO)c1ccc(CNC(=O)c2[nH]c(-c3ccc(F)cc3)cc2-c2ccc(F)cc2)cc1

>  <pchembl_value_mean>  (398) 
5.9

>  <document_chembl_id>  (398) 
CHEMBL3638813

$$$$

     RDKit          2D

 22 23  0  0  0  0  0  0  0  0999 V2000
   10.4688  -10.2562    0.0000 O   0  0  0  0  0  0  0  0  0  0  0  0
    9.2553  -11.1379    0.0000 C   0  0  0  0  0  0  0  0  0  0  0  0
    7.8850  -10.5278    0.0000 C   0  0  0  0  0  0  0  0  0  0  0  0
    7.7282   -9.0360    0.0000 C   0  0  0  0  0  0  0  0  0  0  0  0
    6.3579   -8.4259    0.0000 C   0  0  0  0  0  0  0  0  0  0  0  0
    6.2011   -6.9341    0.0000 C   0  0  0  0  0  0  0  0  0  0  0  0
    4.8308   -6.3240    0.0000 C   0  0  0  0  0  0  0  0  0  0  0  0
    4.6740   -4.8322    0.0000 C   0  0  0  0  0  0  0  0  0  0  0  0
    3.3037   -4.2221    0.0000 C   0  0  0  0  0  0  0  0  0  0  0  0
    2.9918   -2.7549    0.0000 N   0  0  0  0  0  0  0  0  0  0  0  0
    1.5000   -2.5981    0.0000 C   0  0  0  0  0  0  0  0  0  0  0  0
    0.7500   -1.2990    0.0000 C   0  0  0  0  0  0  0  0  0  0  0  0
    1.5000    0.0000    0.0000 C   0  0  0  0  0  0  0  0  0  0  0  0
    0.7500    1.2990    0.0000 C   0  0  0  0  0  0  0  0  0  0  0  0
   -0.7500    1.2990    0.0000 C   0  0  0  0  0  0  0  0  0  0  0  0
   -1.5000    0.0000    0.0000 C   0  0  0  0  0  0  0  0  0  0  0  0
   -0.7500   -1.2990    0.0000 C   0  0  0  0  0  0  0  0  0  0  0  0
   -1.5000   -2.5981    0.0000 Cl  0  0  0  0  0  0  0  0  0  0  0  0
    0.8899   -3.9684    0.0000 N   0  0  0  0  0  0  0  0  0  0  0  0
    2.0046   -4.9721    0.0000 O   0  0  0  0  0  0  0  0  0  0  0  0
    9.4121  -12.6296    0.0000 N   0  0  0  0  0  0  0  0  0  0  0  0
   10.7824  -13.2397    0.0000 O   0  0  0  0  0  0  0  0  0  0  0  0
  1  2  2  0
  2  3  1  0
  3  4  1  0
  4  5  1  0
  5  6  1  0
  6  7  1  0
  7  8  1  0
  8  9  1  0
  9 10  2  0
 10 11  1  0
 11 12  1  0
 12 13  2  0
 13 14  1  0
 14 15  2  0
 15 16  1  0
 16 17  2  0
 17 18  1  0
 11 19  2  0
 19 20  1  0
  2 21  1  0
 21 22  1  0
 20  9  1  0
 17 12  1  0
M  END
>  <molecule_chembl_id>  (399) 
CHEMBL3585964

>  <canonical_smiles>  (399) 
O=C(CCCCCCc1nc(-c2ccccc2Cl)no1)NO

>  <pchembl_value_mean>  (399) 
5.9

>  <document_chembl_id>  (399) 
CHEMBL3585316

$$$$

     RDKit          2D

 32 35  0  0  0  0  0  0  0  0999 V2000
   -4.3786   -5.1199    0.0000 C   0  0  0  0  0  0  0  0  0  0  0  0
   -2.9520   -4.6564    0.0000 C   0  0  0  0  0  0  0  0  0  0  0  0
   -2.6401   -3.1891    0.0000 C   0  0  0  0  0  0  0  0  0  0  0  0
   -1.2135   -2.7256    0.0000 C   0  0  0  0  0  0  0  0  0  0  0  0
   -0.0000   -3.6073    0.0000 N   0  0  0  0  0  0  0  0  0  0  0  0
    1.2135   -2.7256    0.0000 C   0  0  0  0  0  0  0  0  0  0  0  0
    2.6401   -3.1891    0.0000 C   0  0  0  0  0  0  0  0  0  0  0  0
    0.7500   -1.2990    0.0000 C   0  0  0  0  0  0  0  0  0  0  0  0
    1.5000    0.0000    0.0000 C   0  0  0  0  0  0  0  0  0  0  0  0
    3.0000    0.0000    0.0000 O   0  0  0  0  0  0  0  0  0  0  0  0
    0.7500    1.2990    0.0000 N   0  0  0  0  0  0  0  0  0  0  0  0
   -0.7500    1.2990    0.0000 C   0  0  0  0  0  0  0  0  0  0  0  0
   -1.5000    2.5981    0.0000 C   0  0  0  0  0  0  0  0  0  0  0  0
   -0.7500    3.8971    0.0000 C   0  0  0  0  0  0  0  0  0  0  0  0
   -1.5000    5.1962    0.0000 C   0  0  0  0  0  0  0  0  0  0  0  0
   -0.7500    6.4952    0.0000 C   0  0  0  0  0  0  0  0  0  0  0  0
    0.7500    6.4952    0.0000 C   0  0  0  0  0  0  0  0  0  0  0  0
    1.8107    5.4345    0.0000 C   0  0  0  0  0  0  0  0  0  0  0  0
    2.8713    6.4952    0.0000 C   0  0  0  0  0  0  0  0  0  0  0  0
    4.3713    6.4952    0.0000 C   0  0  0  0  0  0  0  0  0  0  0  0
    5.1213    7.7942    0.0000 O   0  0  0  0  0  0  0  0  0  0  0  0
    5.1213    5.1962    0.0000 N   0  0  0  0  0  0  0  0  0  0  0  0
    6.6213    5.1962    0.0000 O   0  0  0  0  0  0  0  0  0  0  0  0
    1.8107    7.5559    0.0000 C   0  0  0  0  0  0  0  0  0  0  0  0
   -3.0000    5.1962    0.0000 C   0  0  0  0  0  0  0  0  0  0  0  0
   -3.7500    3.8971    0.0000 C   0  0  0  0  0  0  0  0  0  0  0  0
   -3.0000    2.5981    0.0000 C   0  0  0  0  0  0  0  0  0  0  0  0
   -3.7500    1.2990    0.0000 O   0  0  0  0  0  0  0  0  0  0  0  0
   -5.2500    1.2990    0.0000 C   0  0  0  0  0  0  0  0  0  0  0  0
   -6.0000    0.0000    0.0000 C   0  0  0  0  0  0  0  0  0  0  0  0
   -1.5000    0.0000    0.0000 N   0  0  0  0  0  0  0  0  0  0  0  0
   -0.7500   -1.2990    0.0000 N   0  0  0  0  0  0  0  0  0  0  0  0
  1  2  1  0
  2  3  1  0
  3  4  1  0
  4  5  2  0
  5  6  1  0
  6  7  1  0
  6  8  2  0
  8  9  1  0
  9 10  2  0
  9 11  1  0
 11 12  1  0
 12 13  1  0
 13 14  2  0
 14 15  1  0
 15 16  1  0
 16 17  1  0
 17 18  1  0
 18 19  1  0
 19 20  1  0
 20 21  2  0
 20 22  1  0
 22 23  1  0
 19 24  1  0
 15 25  2  0
 25 26  1  0
 26 27  2  0
 27 28  1  0
 28 29  1  0
 29 30  1  0
 12 31  2  0
 31 32  1  0
 32  4  1  0
 32  8  1  0
 27 13  1  0
 24 17  1  0
M  END
>  <molecule_chembl_id>  (400) 
CHEMBL4208487

>  <canonical_smiles>  (400) 
CCCc1nc(C)c2c(=O)[nH]c(-c3cc(CC4CC(C(=O)NO)C4)ccc3OCC)nn12

>  <pchembl_value_mean>  (400) 
5.9

>  <document_chembl_id>  (400) 
CHEMBL4196089

$$$$

     RDKit          2D

 25 27  0  0  0  0  0  0  0  0999 V2000
    6.0000    0.0000    0.0000 O   0  0  0  0  0  0  0  0  0  0  0  0
    5.2500   -1.2990    0.0000 C   0  0  0  0  0  0  0  0  0  0  0  0
    3.7500   -1.2990    0.0000 C   0  0  0  0  0  0  0  0  0  0  0  0
    3.0000    0.0000    0.0000 C   0  0  0  0  0  0  0  0  0  0  0  0
    1.5000    0.0000    0.0000 C   0  0  0  0  0  0  0  0  0  0  0  0
    0.7500   -1.2990    0.0000 C   0  0  0  0  0  0  0  0  0  0  0  0
   -0.7500   -1.2990    0.0000 C   0  0  0  0  0  0  0  0  0  0  0  0
   -1.5000    0.0000    0.0000 C   0  0  0  0  0  0  0  0  0  0  0  0
   -3.0000    0.0000    0.0000 C   0  0  0  0  0  0  0  0  0  0  0  0
   -3.7500   -1.2990    0.0000 O   0  0  0  0  0  0  0  0  0  0  0  0
   -3.7500    1.2990    0.0000 N   0  0  0  0  0  0  0  0  0  0  0  0
   -5.2500    1.2990    0.0000 C   0  0  0  0  0  0  0  0  0  0  0  0
   -6.0000    2.5981    0.0000 C   0  0  0  0  0  0  0  0  0  0  0  0
   -7.5000    2.5981    0.0000 C   0  0  0  0  0  0  0  0  0  0  0  0
   -8.2500    3.8971    0.0000 C   0  0  0  0  0  0  0  0  0  0  0  0
   -9.7500    3.8971    0.0000 C   0  0  0  0  0  0  0  0  0  0  0  0
  -10.5000    2.5981    0.0000 C   0  0  0  0  0  0  0  0  0  0  0  0
   -9.7500    1.2990    0.0000 C   0  0  0  0  0  0  0  0  0  0  0  0
   -8.2500    1.2990    0.0000 C   0  0  0  0  0  0  0  0  0  0  0  0
   -3.0000    2.5981    0.0000 C   0  0  0  0  0  0  0  0  0  0  0  0
   -1.5000    2.5981    0.0000 N   0  0  0  0  0  0  0  0  0  0  0  0
   -0.7500    1.2990    0.0000 C   0  0  0  0  0  0  0  0  0  0  0  0
    0.7500    1.2990    0.0000 C   0  0  0  0  0  0  0  0  0  0  0  0
    6.0000   -2.5981    0.0000 N   0  0  0  0  0  0  0  0  0  0  0  0
    7.5000   -2.5981    0.0000 O   0  0  0  0  0  0  0  0  0  0  0  0
  1  2  2  0
  2  3  1  0
  3  4  2  3
  4  5  1  0
  5  6  2  0
  6  7  1  0
  7  8  2  0
  8  9  1  0
  9 10  2  0
  9 11  1  0
 11 12  1  0
 12 13  1  0
 13 14  1  0
 14 15  2  0
 15 16  1  0
 16 17  2  0
 17 18  1  0
 18 19  2  0
 11 20  1  0
 20 21  2  0
 21 22  1  0
 22 23  2  0
  2 24  1  0
 24 25  1  0
 23  5  1  0
 22  8  1  0
 19 14  1  0
M  END
>  <molecule_chembl_id>  (401) 
CHEMBL2425960

>  <canonical_smiles>  (401) 
O=C(C=Cc1ccc2c(=O)n(CCc3ccccc3)cnc2c1)NO

>  <pchembl_value_mean>  (401) 
5.91

>  <document_chembl_id>  (401) 
CHEMBL2424579

$$$$

     RDKit          2D

 42 44  0  0  0  0  0  0  0  0999 V2000
   12.1154  -19.0085    0.0000 C   0  0  0  0  0  0  0  0  0  0  0  0
   11.0547  -17.9478    0.0000 C   0  0  0  0  0  0  0  0  0  0  0  0
   11.4429  -16.4989    0.0000 C   0  0  0  0  0  0  0  0  0  0  0  0
   10.3823  -15.4383    0.0000 C   0  0  0  0  0  0  0  0  0  0  0  0
   10.7705  -13.9894    0.0000 C   0  0  0  0  0  0  0  0  0  0  0  0
    9.7098  -12.9287    0.0000 C   0  0  0  0  0  0  0  0  0  0  0  0
   10.0981  -11.4798    0.0000 C   0  0  0  0  0  0  0  0  0  0  0  0
    9.0374  -10.4192    0.0000 C   0  0  0  0  0  0  0  0  0  0  0  0
    7.5885  -10.8074    0.0000 O   0  0  0  0  0  0  0  0  0  0  0  0
    9.4256   -8.9703    0.0000 S   0  0  0  0  0  0  0  0  0  0  0  0
    8.3650   -7.9096    0.0000 C   0  0  0  0  0  0  0  0  0  0  0  0
    8.7532   -6.4607    0.0000 C   0  0  0  0  0  0  0  0  0  0  0  0
    7.6926   -5.4001    0.0000 C   0  0  0  0  0  0  0  0  0  0  0  0
    8.0808   -3.9512    0.0000 C   0  0  0  0  0  0  0  0  0  0  0  0
    7.0201   -2.8905    0.0000 C   0  0  0  0  0  0  0  0  0  0  0  0
    5.7729   -3.7239    0.0000 C   0  0  0  0  0  0  0  0  0  0  0  0
    4.3017   -4.0165    0.0000 C   0  0  0  0  0  0  0  0  0  0  0  0
    4.3017   -5.5165    0.0000 O   0  0  0  0  0  0  0  0  0  0  0  0
    2.8306   -3.7239    0.0000 N   0  0  0  0  0  0  0  0  0  0  0  0
    1.5834   -2.8905    0.0000 C   0  0  0  0  0  0  0  0  0  0  0  0
    0.7500   -1.2990    0.0000 C   0  0  0  0  0  0  0  0  0  0  0  0
    1.5000    0.0000    0.0000 C   0  0  0  0  0  0  0  0  0  0  0  0
    0.7500    1.2990    0.0000 C   0  0  0  0  0  0  0  0  0  0  0  0
   -0.7500    1.2990    0.0000 C   0  0  0  0  0  0  0  0  0  0  0  0
   -1.5000    0.0000    0.0000 C   0  0  0  0  0  0  0  0  0  0  0  0
   -0.7500   -1.2990    0.0000 N   0  0  0  0  0  0  0  0  0  0  0  0
    1.5834    2.5462    0.0000 C   0  0  0  0  0  0  0  0  0  0  0  0
    2.8306    3.3796    0.0000 N   0  0  0  0  0  0  0  0  0  0  0  0
    4.3017    3.6722    0.0000 C   0  0  0  0  0  0  0  0  0  0  0  0
    4.3017    5.1722    0.0000 C   0  0  0  0  0  0  0  0  0  0  0  0
    3.3276    4.8128    0.0000 C   0  0  0  0  0  0  0  0  0  0  0  0
    1.9417    4.2388    0.0000 S   0  0  0  0  0  0  0  0  0  0  0  0
    5.7729    3.3796    0.0000 C   0  0  0  0  0  0  0  0  0  0  0  0
    6.3469    4.7654    0.0000 O   0  0  0  0  0  0  0  0  0  0  0  0
    7.0201    2.5462    0.0000 N   0  0  0  0  0  0  0  0  0  0  0  0
    7.8535    1.2990    0.0000 C   0  0  0  0  0  0  0  0  0  0  0  0
    9.2393    1.8731    0.0000 C   0  0  0  0  0  0  0  0  0  0  0  0
   10.4293    0.9599    0.0000 C   0  0  0  0  0  0  0  0  0  0  0  0
    9.4351    3.3602    0.0000 C   0  0  0  0  0  0  0  0  0  0  0  0
    8.1461   -0.1721    0.0000 C   0  0  0  0  0  0  0  0  0  0  0  0
    9.6461   -0.1721    0.0000 O   0  0  0  0  0  0  0  0  0  0  0  0
    7.8535   -1.6433    0.0000 N   0  0  0  0  0  0  0  0  0  0  0  0
  1  2  1  0
  2  3  1  0
  3  4  1  0
  4  5  1  0
  5  6  1  0
  6  7  1  0
  7  8  1  0
  8  9  2  0
  8 10  1  0
 10 11  1  0
 11 12  1  0
 12 13  1  0
 13 14  2  3
 14 15  1  0
 15 16  1  0
 16 17  1  0
 17 18  2  0
 17 19  1  0
 19 20  1  0
 20 21  1  0
 21 22  1  0
 22 23  2  0
 23 24  1  0
 24 25  2  0
 25 26  1  0
 23 27  1  0
 27 28  2  0
 28 29  1  0
 29 30  1  0
 29 31  1  0
 31 32  1  0
 29 33  1  0
 33 34  2  0
 33 35  1  0
 35 36  1  0
 36 37  1  0
 37 38  1  0
 37 39  1  0
 36 40  1  0
 40 41  2  0
 40 42  1  0
 42 15  1  0
 26 21  2  0
 32 27  1  0
M  END
>  <molecule_chembl_id>  (402) 
CHEMBL3593414

>  <canonical_smiles>  (402) 
CCCCCCCC(=O)SCCC=CC1CC(=O)NCc2cc(ccn2)C2=NC(C)(CS2)C(=O)NC(C(C)C)C(=O)N1

>  <pchembl_value_mean>  (402) 
5.91

>  <document_chembl_id>  (402) 
CHEMBL3593208

$$$$

     RDKit          2D

 38 40  0  0  0  0  0  0  0  0999 V2000
    3.7500   -1.2990    0.0000 C   0  0  0  0  0  0  0  0  0  0  0  0
    3.0000    0.0000    0.0000 N   0  0  0  0  0  0  0  0  0  0  0  0
    3.7500    1.2990    0.0000 C   0  0  0  0  0  0  0  0  0  0  0  0
    1.5000    0.0000    0.0000 C   0  0  0  0  0  0  0  0  0  0  0  0
    0.7500   -1.2990    0.0000 C   0  0  0  0  0  0  0  0  0  0  0  0
   -0.7500   -1.2990    0.0000 C   0  0  0  0  0  0  0  0  0  0  0  0
   -1.5000    0.0000    0.0000 C   0  0  0  0  0  0  0  0  0  0  0  0
   -3.0000    0.0000    0.0000 C   0  0  0  0  0  0  0  0  0  0  0  0
   -3.7500   -1.2990    0.0000 O   0  0  0  0  0  0  0  0  0  0  0  0
   -3.7500    1.2990    0.0000 N   0  0  0  0  0  0  0  0  0  0  0  0
   -5.2500    1.2990    0.0000 C   0  0  0  0  0  0  0  0  0  0  0  0
   -6.0000    2.5981    0.0000 C   0  0  0  0  0  0  0  0  0  0  0  0
   -7.5000    2.5981    0.0000 C   0  0  0  0  0  0  0  0  0  0  0  0
   -8.2500    3.8971    0.0000 C   0  0  0  0  0  0  0  0  0  0  0  0
   -9.7500    3.8971    0.0000 C   0  0  0  0  0  0  0  0  0  0  0  0
  -10.5000    5.1962    0.0000 C   0  0  0  0  0  0  0  0  0  0  0  0
   -9.7500    6.4952    0.0000 O   0  0  0  0  0  0  0  0  0  0  0  0
  -12.0000    5.1962    0.0000 N   0  0  0  0  0  0  0  0  0  0  0  0
  -12.7500    6.4952    0.0000 C   0  0  0  0  0  0  0  0  0  0  0  0
  -12.0000    7.7942    0.0000 C   0  0  0  0  0  0  0  0  0  0  0  0
  -12.7500    9.0933    0.0000 C   0  0  0  0  0  0  0  0  0  0  0  0
  -14.2500    9.0933    0.0000 C   0  0  0  0  0  0  0  0  0  0  0  0
  -15.0000    7.7942    0.0000 C   0  0  0  0  0  0  0  0  0  0  0  0
  -14.2500    6.4952    0.0000 C   0  0  0  0  0  0  0  0  0  0  0  0
  -15.0000    5.1962    0.0000 N   0  0  0  0  0  0  0  0  0  0  0  0
   -3.0000    2.5981    0.0000 C   0  0  0  0  0  0  0  0  0  0  0  0
   -3.7500    3.8971    0.0000 C   0  0  0  0  0  0  0  0  0  0  0  0
   -5.2500    3.8971    0.0000 O   0  0  0  0  0  0  0  0  0  0  0  0
   -3.0000    5.1962    0.0000 N   0  0  0  0  0  0  0  0  0  0  0  0
   -3.7500    6.4952    0.0000 C   0  0  0  0  0  0  0  0  0  0  0  0
   -3.0000    7.7942    0.0000 C   0  0  0  0  0  0  0  0  0  0  0  0
   -1.5000    7.7942    0.0000 C   0  0  0  0  0  0  0  0  0  0  0  0
   -0.7500    9.0933    0.0000 C   0  0  0  0  0  0  0  0  0  0  0  0
   -1.5000   10.3923    0.0000 C   0  0  0  0  0  0  0  0  0  0  0  0
   -3.0000   10.3923    0.0000 C   0  0  0  0  0  0  0  0  0  0  0  0
   -3.7500    9.0933    0.0000 C   0  0  0  0  0  0  0  0  0  0  0  0
   -0.7500    1.2990    0.0000 C   0  0  0  0  0  0  0  0  0  0  0  0
    0.7500    1.2990    0.0000 C   0  0  0  0  0  0  0  0  0  0  0  0
  1  2  1  0
  2  3  1  0
  2  4  1  0
  4  5  2  0
  5  6  1  0
  6  7  2  0
  7  8  1  0
  8  9  2  0
  8 10  1  0
 10 11  1  0
 11 12  1  0
 12 13  1  0
 13 14  1  0
 14 15  1  0
 15 16  1  0
 16 17  2  0
 16 18  1  0
 18 19  1  0
 19 20  2  0
 20 21  1  0
 21 22  2  0
 22 23  1  0
 23 24  2  0
 24 25  1  0
 10 26  1  0
 26 27  1  0
 27 28  2  0
 27 29  1  0
 29 30  1  0
 30 31  1  0
 31 32  2  0
 32 33  1  0
 33 34  2  0
 34 35  1  0
 35 36  2  0
  7 37  1  0
 37 38  2  0
 38  4  1  0
 24 19  1  0
 36 31  1  0
M  END
>  <molecule_chembl_id>  (403) 
CHEMBL4440413

>  <canonical_smiles>  (403) 
CN(C)c1ccc(C(=O)N(CCCCCC(=O)Nc2ccccc2N)CC(=O)NCc2ccccc2)cc1

>  <pchembl_value_mean>  (403) 
5.91

>  <document_chembl_id>  (403) 
CHEMBL4334526

$$$$

     RDKit          2D

 38 42  0  0  0  0  0  0  0  0999 V2000
    1.5000   -7.7942    0.0000 C   0  0  0  0  0  0  0  0  0  0  0  0
    0.7500   -6.4952    0.0000 C   0  0  0  0  0  0  0  0  0  0  0  0
    1.5000   -5.1962    0.0000 C   0  0  0  0  0  0  0  0  0  0  0  0
    3.0000   -5.1962    0.0000 N   0  0  0  0  0  0  0  0  0  0  0  0
    3.7500   -6.4952    0.0000 C   0  0  0  0  0  0  0  0  0  0  0  0
    3.0000   -7.7942    0.0000 N   0  0  0  0  0  0  0  0  0  0  0  0
    3.7500   -9.0933    0.0000 C   0  0  0  0  0  0  0  0  0  0  0  0
    5.2500   -9.0933    0.0000 N   0  0  0  0  0  0  0  0  0  0  0  0
    6.0000   -7.7942    0.0000 C   0  0  0  0  0  0  0  0  0  0  0  0
    7.4672   -7.4824    0.0000 N   0  0  0  0  0  0  0  0  0  0  0  0
    7.6240   -5.9906    0.0000 C   0  0  0  0  0  0  0  0  0  0  0  0
    6.2537   -5.3805    0.0000 N   0  0  0  0  0  0  0  0  0  0  0  0
    5.2500   -6.4952    0.0000 C   0  0  0  0  0  0  0  0  0  0  0  0
    0.7500   -3.8971    0.0000 C   0  0  0  0  0  0  0  0  0  0  0  0
    1.5000   -2.5981    0.0000 N   0  0  0  0  0  0  0  0  0  0  0  0
    0.7500   -1.2990    0.0000 C   0  0  0  0  0  0  0  0  0  0  0  0
    1.5000    0.0000    0.0000 C   0  0  0  0  0  0  0  0  0  0  0  0
    0.7500    1.2990    0.0000 C   0  0  0  0  0  0  0  0  0  0  0  0
   -0.7500    1.2990    0.0000 C   0  0  0  0  0  0  0  0  0  0  0  0
   -1.5000    0.0000    0.0000 C   0  0  0  0  0  0  0  0  0  0  0  0
   -3.0000    0.0000    0.0000 C   0  0  0  0  0  0  0  0  0  0  0  0
   -3.7500    1.2990    0.0000 C   0  0  0  0  0  0  0  0  0  0  0  0
   -5.2500    1.2990    0.0000 C   0  0  0  0  0  0  0  0  0  0  0  0
   -6.0000    2.5981    0.0000 C   0  0  0  0  0  0  0  0  0  0  0  0
   -7.5000    2.5981    0.0000 C   0  0  0  0  0  0  0  0  0  0  0  0
   -8.2500    1.2990    0.0000 O   0  0  0  0  0  0  0  0  0  0  0  0
   -8.2500    3.8971    0.0000 N   0  0  0  0  0  0  0  0  0  0  0  0
   -9.7500    3.8971    0.0000 O   0  0  0  0  0  0  0  0  0  0  0  0
   -0.7500   -1.2990    0.0000 C   0  0  0  0  0  0  0  0  0  0  0  0
   -1.5000   -2.5981    0.0000 C   0  0  0  0  0  0  0  0  0  0  0  0
   -3.0000   -2.5981    0.0000 O   0  0  0  0  0  0  0  0  0  0  0  0
   -0.7500   -3.8971    0.0000 N   0  0  0  0  0  0  0  0  0  0  0  0
   -1.5000   -5.1962    0.0000 C   0  0  0  0  0  0  0  0  0  0  0  0
   -3.0000   -5.1962    0.0000 C   0  0  0  0  0  0  0  0  0  0  0  0
   -3.7500   -6.4952    0.0000 C   0  0  0  0  0  0  0  0  0  0  0  0
   -3.0000   -7.7942    0.0000 C   0  0  0  0  0  0  0  0  0  0  0  0
   -1.5000   -7.7942    0.0000 C   0  0  0  0  0  0  0  0  0  0  0  0
   -0.7500   -6.4952    0.0000 C   0  0  0  0  0  0  0  0  0  0  0  0
  1  2  1  0
  2  3  1  0
  3  4  1  0
  4  5  1  0
  5  6  2  0
  6  7  1  0
  7  8  2  0
  8  9  1  0
  9 10  1  0
 10 11  1  0
 11 12  2  0
 12 13  1  0
  3 14  1  0
 14 15  2  0
 15 16  1  0
 16 17  2  0
 17 18  1  0
 18 19  2  0
 19 20  1  0
 20 21  1  0
 21 22  1  0
 22 23  1  0
 23 24  1  0
 24 25  1  0
 25 26  2  0
 25 27  1  0
 27 28  1  0
 20 29  2  0
 29 30  1  0
 30 31  2  0
 30 32  1  0
 32 33  1  0
 33 34  2  0
 34 35  1  0
 35 36  2  0
 36 37  1  0
 37 38  2  0
 13  5  1  0
 32 14  1  0
 38 33  1  0
 13  9  2  0
 29 16  1  0
M  END
>  <molecule_chembl_id>  (404) 
CHEMBL4445342

>  <canonical_smiles>  (404) 
CCC(Nc1ncnc2[nH]cnc12)c1nc2cccc(CCCCC(=O)NO)c2c(=O)n1-c1ccccc1

>  <pchembl_value_mean>  (404) 
5.91

>  <document_chembl_id>  (404) 
CHEMBL4402587

$$$$

     RDKit          2D

 34 35  0  0  0  0  0  0  0  0999 V2000
   -3.0000    2.5981    0.0000 C   0  0  0  0  0  0  0  0  0  0  0  0
   -1.5000    2.5981    0.0000 C   0  0  0  0  0  0  0  0  0  0  0  0
   -0.7500    3.8971    0.0000 C   0  0  0  0  0  0  0  0  0  0  0  0
   -0.7500    1.2990    0.0000 C   0  0  0  0  0  0  0  0  0  0  0  0
   -1.5000    0.0000    0.0000 C   0  0  0  0  0  0  0  0  0  0  0  0
   -0.7500   -1.2990    0.0000 C   0  0  0  0  0  0  0  0  0  0  0  0
   -1.5000   -2.5981    0.0000 C   0  0  0  0  0  0  0  0  0  0  0  0
   -0.7500   -3.8971    0.0000 O   0  0  0  0  0  0  0  0  0  0  0  0
   -3.0000   -2.5981    0.0000 N   0  0  0  0  0  0  0  0  0  0  0  0
   -3.7500   -3.8971    0.0000 C   0  0  0  0  0  0  0  0  0  0  0  0
   -3.7500   -1.2990    0.0000 C   0  0  0  0  0  0  0  0  0  0  0  0
   -3.0000    0.0000    0.0000 C   0  0  0  0  0  0  0  0  0  0  0  0
   -3.7500    1.2990    0.0000 C   0  0  0  0  0  0  0  0  0  0  0  0
   -5.2500    1.2990    0.0000 C   0  0  0  0  0  0  0  0  0  0  0  0
   -6.0000    2.5981    0.0000 N   0  0  0  0  0  0  0  0  0  0  0  0
   -5.2500    3.8971    0.0000 C   0  0  0  0  0  0  0  0  0  0  0  0
   -3.7500    3.8971    0.0000 O   0  0  0  0  0  0  0  0  0  0  0  0
   -6.0000    5.1962    0.0000 C   0  0  0  0  0  0  0  0  0  0  0  0
   -5.2500    6.4952    0.0000 C   0  0  0  0  0  0  0  0  0  0  0  0
   -6.0000    7.7942    0.0000 C   0  0  0  0  0  0  0  0  0  0  0  0
   -5.2500    9.0933    0.0000 C   0  0  0  0  0  0  0  0  0  0  0  0
   -6.0000   10.3923    0.0000 C   0  0  0  0  0  0  0  0  0  0  0  0
   -5.2500   11.6913    0.0000 C   0  0  0  0  0  0  0  0  0  0  0  0
   -6.0000   12.9904    0.0000 C   0  0  0  0  0  0  0  0  0  0  0  0
   -7.5000   12.9904    0.0000 O   0  0  0  0  0  0  0  0  0  0  0  0
   -5.2500   14.2894    0.0000 N   0  0  0  0  0  0  0  0  0  0  0  0
   -6.0000   15.5885    0.0000 O   0  0  0  0  0  0  0  0  0  0  0  0
   -6.0000    0.0000    0.0000 C   0  0  0  0  0  0  0  0  0  0  0  0
   -5.2500   -1.2990    0.0000 C   0  0  0  0  0  0  0  0  0  0  0  0
    0.7500   -1.2990    0.0000 C   0  0  0  0  0  0  0  0  0  0  0  0
    1.5000   -2.5981    0.0000 O   0  0  0  0  0  0  0  0  0  0  0  0
    1.5000   -0.0000    0.0000 C   0  0  0  0  0  0  0  0  0  0  0  0
    0.7500    1.2990    0.0000 C   0  0  0  0  0  0  0  0  0  0  0  0
    1.5000    2.5981    0.0000 O   0  0  0  0  0  0  0  0  0  0  0  0
  1  2  1  0
  2  3  1  0
  2  4  1  0
  4  5  2  0
  5  6  1  0
  6  7  1  0
  7  8  2  0
  7  9  1  0
  9 10  1  0
  9 11  1  0
 11 12  2  0
 12 13  1  0
 13 14  2  0
 14 15  1  0
 15 16  1  0
 16 17  2  0
 16 18  1  0
 18 19  1  0
 19 20  1  0
 20 21  1  0
 21 22  1  0
 22 23  1  0
 23 24  1  0
 24 25  2  0
 24 26  1  0
 26 27  1  0
 14 28  1  0
 28 29  2  0
  6 30  2  0
 30 31  1  0
 30 32  1  0
 32 33  2  0
 33 34  1  0
 33  4  1  0
 29 11  1  0
M  END
>  <molecule_chembl_id>  (405) 
CHEMBL4514330

>  <canonical_smiles>  (405) 
CC(C)c1cc(C(=O)N(C)c2ccc(NC(=O)CCCCCCC(=O)NO)cc2)c(O)cc1O

>  <pchembl_value_mean>  (405) 
5.92

>  <document_chembl_id>  (405) 
CHEMBL4373735

$$$$

     RDKit          2D

 21 23  0  0  0  0  0  0  0  0999 V2000
   -8.5234    9.2431    0.0000 O   0  0  0  0  0  0  0  0  0  0  0  0
   -7.0969    9.7066    0.0000 C   0  0  0  0  0  0  0  0  0  0  0  0
   -5.9821    8.7029    0.0000 C   0  0  0  0  0  0  0  0  0  0  0  0
   -6.2940    7.2357    0.0000 C   0  0  0  0  0  0  0  0  0  0  0  0
   -5.1793    6.2320    0.0000 C   0  0  0  0  0  0  0  0  0  0  0  0
   -3.7527    6.6955    0.0000 C   0  0  0  0  0  0  0  0  0  0  0  0
   -2.6380    5.6918    0.0000 C   0  0  0  0  0  0  0  0  0  0  0  0
   -2.9499    4.2246    0.0000 C   0  0  0  0  0  0  0  0  0  0  0  0
   -1.8351    3.2209    0.0000 C   0  0  0  0  0  0  0  0  0  0  0  0
   -0.4086    3.6844    0.0000 C   0  0  0  0  0  0  0  0  0  0  0  0
    0.7062    2.6807    0.0000 C   0  0  0  0  0  0  0  0  0  0  0  0
    0.3943    1.2135    0.0000 C   0  0  0  0  0  0  0  0  0  0  0  0
    1.2760    0.0000    0.0000 N   0  0  0  0  0  0  0  0  0  0  0  0
    0.3943   -1.2135    0.0000 C   0  0  0  0  0  0  0  0  0  0  0  0
   -1.0323   -0.7500    0.0000 C   0  0  0  0  0  0  0  0  0  0  0  0
   -1.0323    0.7500    0.0000 C   0  0  0  0  0  0  0  0  0  0  0  0
   -2.1470    1.7537    0.0000 C   0  0  0  0  0  0  0  0  0  0  0  0
   -4.3764    3.7611    0.0000 C   0  0  0  0  0  0  0  0  0  0  0  0
   -5.4912    4.7648    0.0000 C   0  0  0  0  0  0  0  0  0  0  0  0
   -6.7850   11.1738    0.0000 N   0  0  0  0  0  0  0  0  0  0  0  0
   -7.8997   12.1775    0.0000 O   0  0  0  0  0  0  0  0  0  0  0  0
  1  2  2  0
  2  3  1  0
  3  4  2  3
  4  5  1  0
  5  6  2  0
  6  7  1  0
  7  8  2  0
  8  9  1  0
  9 10  2  0
 10 11  1  0
 11 12  2  0
 12 13  1  0
 13 14  1  0
 14 15  2  0
 15 16  1  0
 16 17  2  0
  8 18  1  0
 18 19  2  0
  2 20  1  0
 20 21  1  0
 19  5  1  0
 17  9  1  0
 16 12  1  0
M  END
>  <molecule_chembl_id>  (406) 
CHEMBL538713

>  <canonical_smiles>  (406) 
O=C(C=Cc1ccc(-c2ccc3[nH]ccc3c2)cc1)NO

>  <pchembl_value_mean>  (406) 
5.92

>  <document_chembl_id>  (406) 
CHEMBL1158371

$$$$

     RDKit          2D

 32 36  0  0  0  0  0  0  0  0999 V2000
    3.7500   -3.8971    0.0000 N   0  0  0  0  0  0  0  0  0  0  0  0
    3.0000   -5.1962    0.0000 C   0  0  0  0  0  0  0  0  0  0  0  0
    3.7500   -6.4952    0.0000 C   0  0  0  0  0  0  0  0  0  0  0  0
    3.0000   -7.7942    0.0000 N   0  0  0  0  0  0  0  0  0  0  0  0
    1.5000   -7.7942    0.0000 C   0  0  0  0  0  0  0  0  0  0  0  0
    0.7500   -9.0933    0.0000 C   0  0  0  0  0  0  0  0  0  0  0  0
   -0.7500   -9.0933    0.0000 C   0  0  0  0  0  0  0  0  0  0  0  0
   -1.5000  -10.3923    0.0000 C   0  0  0  0  0  0  0  0  0  0  0  0
   -0.7500  -11.6913    0.0000 C   0  0  0  0  0  0  0  0  0  0  0  0
    0.7500  -11.6913    0.0000 C   0  0  0  0  0  0  0  0  0  0  0  0
    1.5000  -10.3923    0.0000 C   0  0  0  0  0  0  0  0  0  0  0  0
    0.7500   -6.4952    0.0000 C   0  0  0  0  0  0  0  0  0  0  0  0
    1.5000   -5.1962    0.0000 C   0  0  0  0  0  0  0  0  0  0  0  0
    0.7500   -3.8971    0.0000 N   0  0  0  0  0  0  0  0  0  0  0  0
    1.5000   -2.5981    0.0000 C   0  0  0  0  0  0  0  0  0  0  0  0
    3.0000   -2.5981    0.0000 O   0  0  0  0  0  0  0  0  0  0  0  0
    0.7500   -1.2990    0.0000 C   0  0  0  0  0  0  0  0  0  0  0  0
    1.5000    0.0000    0.0000 C   0  0  0  0  0  0  0  0  0  0  0  0
    0.7500    1.2990    0.0000 N   0  0  0  0  0  0  0  0  0  0  0  0
   -0.7500    1.2990    0.0000 C   0  0  0  0  0  0  0  0  0  0  0  0
   -1.5000    2.5981    0.0000 C   0  0  0  0  0  0  0  0  0  0  0  0
   -3.0000    2.5981    0.0000 C   0  0  0  0  0  0  0  0  0  0  0  0
   -3.7500    3.8971    0.0000 N   0  0  0  0  0  0  0  0  0  0  0  0
   -3.0000    5.1962    0.0000 C   0  0  0  0  0  0  0  0  0  0  0  0
   -3.7500    6.4952    0.0000 C   0  0  0  0  0  0  0  0  0  0  0  0
   -5.2500    6.4952    0.0000 N   0  0  0  0  0  0  0  0  0  0  0  0
   -6.0000    5.1962    0.0000 C   0  0  0  0  0  0  0  0  0  0  0  0
   -5.2500    3.8971    0.0000 C   0  0  0  0  0  0  0  0  0  0  0  0
   -3.7500    1.2990    0.0000 C   0  0  0  0  0  0  0  0  0  0  0  0
   -3.0000    0.0000    0.0000 C   0  0  0  0  0  0  0  0  0  0  0  0
   -1.5000    0.0000    0.0000 C   0  0  0  0  0  0  0  0  0  0  0  0
   -0.7500   -1.2990    0.0000 C   0  0  0  0  0  0  0  0  0  0  0  0
  1  2  1  0
  2  3  2  0
  3  4  1  0
  4  5  2  0
  5  6  1  0
  6  7  2  0
  7  8  1  0
  8  9  2  0
  9 10  1  0
 10 11  2  0
  5 12  1  0
 12 13  2  0
 13 14  1  0
 14 15  1  0
 15 16  2  0
 15 17  1  0
 17 18  2  0
 18 19  1  0
 19 20  2  0
 20 21  1  0
 21 22  2  0
 22 23  1  0
 23 24  1  0
 24 25  1  0
 25 26  1  0
 26 27  1  0
 27 28  1  0
 22 29  1  0
 29 30  2  0
 30 31  1  0
 31 32  2  0
 13  2  1  0
 32 17  1  0
 11  6  1  0
 31 20  1  0
 28 23  1  0
M  END
>  <molecule_chembl_id>  (407) 
CHEMBL3896374

>  <canonical_smiles>  (407) 
Nc1cnc(-c2ccccc2)cc1NC(=O)c1cnc2cc(N3CCNCC3)ccc2c1

>  <pchembl_value_mean>  (407) 
5.92

>  <document_chembl_id>  (407) 
CHEMBL3886267

$$$$

     RDKit          2D

 89 96  0  0  0  0  0  0  0  0999 V2000
   12.0000   -7.7942    0.0000 O   0  0  0  0  0  0  0  0  0  0  0  0
   12.7500   -6.4952    0.0000 C   0  0  0  0  0  0  0  0  0  0  0  0
   12.0000   -5.1962    0.0000 C   0  0  0  0  0  0  0  0  0  0  0  0
   10.5000   -5.1962    0.0000 C   0  0  0  0  0  0  0  0  0  0  0  0
    9.7500   -3.8971    0.0000 C   0  0  0  0  0  0  0  0  0  0  0  0
    8.2500   -3.8971    0.0000 C   0  0  0  0  0  0  0  0  0  0  0  0
    7.5000   -2.5981    0.0000 C   0  0  0  0  0  0  0  0  0  0  0  0
    6.0000   -2.5981    0.0000 C   0  0  0  0  0  0  0  0  0  0  0  0
    5.2500   -1.2990    0.0000 C   0  0  0  0  0  0  0  0  0  0  0  0
    6.0000    0.0000    0.0000 O   0  0  0  0  0  0  0  0  0  0  0  0
    3.7500   -1.2990    0.0000 N   0  0  0  0  0  0  0  0  0  0  0  0
    3.0000    0.0000    0.0000 C   0  0  0  0  0  0  0  0  0  0  0  0
    1.5000    0.0000    0.0000 C   0  0  0  0  0  0  0  0  0  0  0  0
    0.7500   -1.2990    0.0000 O   0  0  0  0  0  0  0  0  0  0  0  0
   -0.7500   -1.2990    0.0000 C   0  0  0  0  0  0  0  0  0  0  0  0
   -1.9086   -2.2517    0.0000 O   0  0  0  0  0  0  0  0  0  0  0  0
   -3.2187   -2.9822    0.0000 C   0  0  0  0  0  0  0  0  0  0  0  0
   -4.6382   -3.4670    0.0000 C   0  0  0  0  0  0  0  0  0  0  0  0
   -4.2826   -4.9242    0.0000 C   0  0  0  0  0  0  0  0  0  0  0  0
   -5.3668   -5.9608    0.0000 O   0  0  0  0  0  0  0  0  0  0  0  0
   -6.1215   -3.6906    0.0000 O   0  0  0  0  0  0  0  0  0  0  0  0
   -7.6208   -3.6457    0.0000 C   0  0  0  0  0  0  0  0  0  0  0  0
   -9.0880   -3.3338    0.0000 O   0  0  0  0  0  0  0  0  0  0  0  0
  -10.4760   -2.7650    0.0000 C   0  0  0  0  0  0  0  0  0  0  0  0
  -11.7401   -1.9575    0.0000 C   0  0  0  0  0  0  0  0  0  0  0  0
  -12.6576   -3.1441    0.0000 C   0  0  0  0  0  0  0  0  0  0  0  0
  -14.1441   -2.9427    0.0000 O   0  0  0  0  0  0  0  0  0  0  0  0
  -12.8396   -0.9372    0.0000 O   0  0  0  0  0  0  0  0  0  0  0  0
  -13.7394    0.2630    0.0000 C   0  0  0  0  0  0  0  0  0  0  0  0
  -14.4103    1.6046    0.0000 O   0  0  0  0  0  0  0  0  0  0  0  0
  -14.8310    3.0444    0.0000 C   0  0  0  0  0  0  0  0  0  0  0  0
  -14.9878    4.5362    0.0000 C   0  0  0  0  0  0  0  0  0  0  0  0
  -16.4876    4.5137    0.0000 C   0  0  0  0  0  0  0  0  0  0  0  0
  -17.2570    5.8014    0.0000 O   0  0  0  0  0  0  0  0  0  0  0  0
  -14.8757    6.0320    0.0000 O   0  0  0  0  0  0  0  0  0  0  0  0
  -14.4983    7.4837    0.0000 C   0  0  0  0  0  0  0  0  0  0  0  0
  -13.8678    8.8447    0.0000 O   0  0  0  0  0  0  0  0  0  0  0  0
  -13.0043   10.0713    0.0000 C   0  0  0  0  0  0  0  0  0  0  0  0
  -11.9358   11.1240    0.0000 C   0  0  0  0  0  0  0  0  0  0  0  0
  -12.8884   12.2827    0.0000 C   0  0  0  0  0  0  0  0  0  0  0  0
  -12.3614   13.6870    0.0000 O   0  0  0  0  0  0  0  0  0  0  0  0
  -10.6964   11.9690    0.0000 O   0  0  0  0  0  0  0  0  0  0  0  0
   -9.3261   12.5791    0.0000 C   0  0  0  0  0  0  0  0  0  0  0  0
   -7.8689   12.9347    0.0000 O   0  0  0  0  0  0  0  0  0  0  0  0
   -6.3715   13.0244    0.0000 C   0  0  0  0  0  0  0  0  0  0  0  0
   -4.8823   12.8453    0.0000 C   0  0  0  0  0  0  0  0  0  0  0  0
   -4.5704   14.3126    0.0000 C   0  0  0  0  0  0  0  0  0  0  0  0
   -3.1438   14.7761    0.0000 O   0  0  0  0  0  0  0  0  0  0  0  0
   -3.4489   12.4032    0.0000 O   0  0  0  0  0  0  0  0  0  0  0  0
   -2.1175   11.7122    0.0000 C   0  0  0  0  0  0  0  0  0  0  0  0
   -0.9309   10.7947    0.0000 O   0  0  0  0  0  0  0  0  0  0  0  0
    0.0728    9.6799    0.0000 C   0  0  0  0  0  0  0  0  0  0  0  0
    0.8613    8.4039    0.0000 C   0  0  0  0  0  0  0  0  0  0  0  0
    2.2029    9.0749    0.0000 C   0  0  0  0  0  0  0  0  0  0  0  0
    3.4547    8.2485    0.0000 O   0  0  0  0  0  0  0  0  0  0  0  0
    1.4093    7.0076    0.0000 O   0  0  0  0  0  0  0  0  0  0  0  0
    1.6992    5.5359    0.0000 C   0  0  0  0  0  0  0  0  0  0  0  0
    1.7216    4.0361    0.0000 O   0  0  0  0  0  0  0  0  0  0  0  0
    0.7500    1.2990    0.0000 C   0  0  0  0  0  0  0  0  0  0  0  0
   -0.7500    1.2990    0.0000 C   0  0  0  0  0  0  0  0  0  0  0  0
   -1.5000    2.5981    0.0000 O   0  0  0  0  0  0  0  0  0  0  0  0
   -1.5000    0.0000    0.0000 C   0  0  0  0  0  0  0  0  0  0  0  0
   -3.0000    0.0000    0.0000 O   0  0  0  0  0  0  0  0  0  0  0  0
    0.9896    7.3440    0.0000 C   0  0  0  0  0  0  0  0  0  0  0  0
   -0.4309    6.1409    0.0000 O   0  0  0  0  0  0  0  0  0  0  0  0
    0.7824    7.8719    0.0000 C   0  0  0  0  0  0  0  0  0  0  0  0
   -1.0772    7.7876    0.0000 O   0  0  0  0  0  0  0  0  0  0  0  0
   -3.6068   11.8913    0.0000 C   0  0  0  0  0  0  0  0  0  0  0  0
   -3.9187   10.4241    0.0000 O   0  0  0  0  0  0  0  0  0  0  0  0
   -5.0402   12.3335    0.0000 C   0  0  0  0  0  0  0  0  0  0  0  0
   -5.6090   10.9455    0.0000 O   0  0  0  0  0  0  0  0  0  0  0  0
  -10.3947   11.5264    0.0000 C   0  0  0  0  0  0  0  0  0  0  0  0
   -9.4420   10.3678    0.0000 O   0  0  0  0  0  0  0  0  0  0  0  0
  -11.6340   10.6814    0.0000 C   0  0  0  0  0  0  0  0  0  0  0  0
  -10.9035    9.3713    0.0000 O   0  0  0  0  0  0  0  0  0  0  0  0
  -14.3415    5.9919    0.0000 C   0  0  0  0  0  0  0  0  0  0  0  0
  -12.8417    6.0144    0.0000 O   0  0  0  0  0  0  0  0  0  0  0  0
  -14.4536    4.4961    0.0000 C   0  0  0  0  0  0  0  0  0  0  0  0
  -12.9739    4.2504    0.0000 O   0  0  0  0  0  0  0  0  0  0  0  0
  -12.4753   -0.5445    0.0000 C   0  0  0  0  0  0  0  0  0  0  0  0
  -11.5577    0.6421    0.0000 O   0  0  0  0  0  0  0  0  0  0  0  0
  -11.3757   -1.5648    0.0000 C   0  0  0  0  0  0  0  0  0  0  0  0
  -10.2610   -0.5611    0.0000 O   0  0  0  0  0  0  0  0  0  0  0  0
   -6.2013   -3.1609    0.0000 C   0  0  0  0  0  0  0  0  0  0  0  0
   -6.5569   -1.7037    0.0000 O   0  0  0  0  0  0  0  0  0  0  0  0
   -4.7181   -2.9373    0.0000 C   0  0  0  0  0  0  0  0  0  0  0  0
   -4.8078   -1.4400    0.0000 O   0  0  0  0  0  0  0  0  0  0  0  0
   14.2500   -6.4952    0.0000 N   0  0  0  0  0  0  0  0  0  0  0  0
   15.0000   -7.7942    0.0000 O   0  0  0  0  0  0  0  0  0  0  0  0
  1  2  2  0
  2  3  1  0
  3  4  1  0
  4  5  1  0
  5  6  1  0
  6  7  1  0
  7  8  1  0
  8  9  1  0
  9 10  2  0
  9 11  1  0
 11 12  1  0
 12 13  1  0
 13 14  1  0
 14 15  1  0
 15 16  1  0
 16 17  1  0
 17 18  1  0
 18 19  1  0
 19 20  1  0
 18 21  1  0
 21 22  1  0
 22 23  1  0
 23 24  1  0
 24 25  1  0
 25 26  1  0
 26 27  1  0
 25 28  1  0
 28 29  1  0
 29 30  1  0
 30 31  1  0
 31 32  1  0
 32 33  1  0
 33 34  1  0
 32 35  1  0
 35 36  1  0
 36 37  1  0
 37 38  1  0
 38 39  1  0
 39 40  1  0
 40 41  1  0
 39 42  1  0
 42 43  1  0
 43 44  1  0
 44 45  1  0
 45 46  1  0
 46 47  1  0
 47 48  1  0
 46 49  1  0
 49 50  1  0
 50 51  1  0
 51 52  1  0
 52 53  1  0
 53 54  1  0
 54 55  1  0
 53 56  1  0
 56 57  1  0
 57 58  1  0
 58 59  1  0
 59 60  1  0
 60 61  1  0
 60 62  1  0
 62 63  1  0
 57 64  1  0
 64 65  1  0
 64 66  1  0
 66 67  1  0
 50 68  1  0
 68 69  1  0
 68 70  1  0
 70 71  1  0
 43 72  1  0
 72 73  1  0
 72 74  1  0
 74 75  1  0
 36 76  1  0
 76 77  1  0
 76 78  1  0
 78 79  1  0
 29 80  1  0
 80 81  1  0
 80 82  1  0
 82 83  1  0
 22 84  1  0
 84 85  1  0
 84 86  1  0
 86 87  1  0
  2 88  1  0
 88 89  1  0
 59 13  1  0
 62 15  1  0
 86 17  1  0
 82 24  1  0
 78 31  1  0
 74 38  1  0
 70 45  1  0
 66 52  1  0
M  END
>  <molecule_chembl_id>  (408) 
CHEMBL2387320

>  <canonical_smiles>  (408) 
O=C(CCCCCCC(=O)NCC1OC2OC3C(CO)OC(OC4C(CO)OC(OC5C(CO)OC(OC6C(CO)OC(OC7C(CO)OC(OC8C(CO)OC(OC1C(O)C2O)C(O)C8O)C(O)C7O)C(O)C6O)C(O)C5O)C(O)C4O)C(O)C3O)NO

>  <pchembl_value_mean>  (408) 
5.92

>  <document_chembl_id>  (408) 
CHEMBL2384983

$$$$

     RDKit          2D

 49 51  0  0  0  0  0  0  0  0999 V2000
   12.1339   -5.1962    0.0000 C   0  0  0  0  0  0  0  0  0  0  0  0
   11.3839   -3.8971    0.0000 C   0  0  0  0  0  0  0  0  0  0  0  0
    9.8839   -3.8971    0.0000 C   0  0  0  0  0  0  0  0  0  0  0  0
    9.1339   -5.1962    0.0000 O   0  0  0  0  0  0  0  0  0  0  0  0
    9.1339   -2.5981    0.0000 C   0  0  0  0  0  0  0  0  0  0  0  0
    7.6339   -2.5981    0.0000 C   0  0  0  0  0  0  0  0  0  0  0  0
    6.8839   -1.2990    0.0000 C   0  0  0  0  0  0  0  0  0  0  0  0
    5.3839   -1.2990    0.0000 C   0  0  0  0  0  0  0  0  0  0  0  0
    4.6339    0.0000    0.0000 C   0  0  0  0  0  0  0  0  0  0  0  0
    3.1339    0.0000    0.0000 C   0  0  0  0  0  0  0  0  0  0  0  0
    2.7750    1.4564    0.0000 N   0  0  0  0  0  0  0  0  0  0  0  0
    1.7803    2.5792    0.0000 C   0  0  0  0  0  0  0  0  0  0  0  0
    2.6324    3.8137    0.0000 O   0  0  0  0  0  0  0  0  0  0  0  0
    0.3778    3.1111    0.0000 C   0  0  0  0  0  0  0  0  0  0  0  0
    0.5586    4.6001    0.0000 C   0  0  0  0  0  0  0  0  0  0  0  0
    1.9385    5.1881    0.0000 C   0  0  0  0  0  0  0  0  0  0  0  0
    2.1193    6.6772    0.0000 C   0  0  0  0  0  0  0  0  0  0  0  0
    3.4993    7.2651    0.0000 N   0  0  0  0  0  0  0  0  0  0  0  0
    3.6801    8.7542    0.0000 C   0  0  0  0  0  0  0  0  0  0  0  0
    2.4809    9.6553    0.0000 N   0  0  0  0  0  0  0  0  0  0  0  0
    5.0601    9.3421    0.0000 N   0  0  0  0  0  0  0  0  0  0  0  0
   -1.1113    2.9303    0.0000 N   0  0  0  0  0  0  0  0  0  0  0  0
   -2.3458    2.0782    0.0000 C   0  0  0  0  0  0  0  0  0  0  0  0
   -3.4686    3.0729    0.0000 O   0  0  0  0  0  0  0  0  0  0  0  0
   -3.0429    0.7500    0.0000 C   0  0  0  0  0  0  0  0  0  0  0  0
   -3.0429   -0.7500    0.0000 C   0  0  0  0  0  0  0  0  0  0  0  0
   -2.3458   -2.0782    0.0000 N   0  0  0  0  0  0  0  0  0  0  0  0
   -3.4686   -3.0729    0.0000 C   0  0  0  0  0  0  0  0  0  0  0  0
   -4.8914   -2.5979    0.0000 C   0  0  0  0  0  0  0  0  0  0  0  0
   -6.0141   -3.5926    0.0000 C   0  0  0  0  0  0  0  0  0  0  0  0
   -7.4369   -3.1175    0.0000 C   0  0  0  0  0  0  0  0  0  0  0  0
   -5.7141   -5.0622    0.0000 C   0  0  0  0  0  0  0  0  0  0  0  0
   -1.1113   -2.9303    0.0000 C   0  0  0  0  0  0  0  0  0  0  0  0
   -1.6432   -4.3328    0.0000 O   0  0  0  0  0  0  0  0  0  0  0  0
    0.3778   -3.1111    0.0000 C   0  0  0  0  0  0  0  0  0  0  0  0
    1.7803   -2.5792    0.0000 N   0  0  0  0  0  0  0  0  0  0  0  0
    2.6324   -3.8137    0.0000 C   0  0  0  0  0  0  0  0  0  0  0  0
    1.9893   -5.1688    0.0000 C   0  0  0  0  0  0  0  0  0  0  0  0
    2.8414   -6.4033    0.0000 C   0  0  0  0  0  0  0  0  0  0  0  0
    4.3410   -6.4396    0.0000 C   0  0  0  0  0  0  0  0  0  0  0  0
    4.7699   -7.8769    0.0000 N   0  0  0  0  0  0  0  0  0  0  0  0
    3.5354   -8.7290    0.0000 C   0  0  0  0  0  0  0  0  0  0  0  0
    3.3426  -10.2166    0.0000 C   0  0  0  0  0  0  0  0  0  0  0  0
    1.9580  -10.7934    0.0000 C   0  0  0  0  0  0  0  0  0  0  0  0
    0.7661   -9.8826    0.0000 C   0  0  0  0  0  0  0  0  0  0  0  0
    0.9589   -8.3951    0.0000 C   0  0  0  0  0  0  0  0  0  0  0  0
    2.3436   -7.8183    0.0000 C   0  0  0  0  0  0  0  0  0  0  0  0
    2.7750   -1.4564    0.0000 C   0  0  0  0  0  0  0  0  0  0  0  0
    4.1031   -2.1535    0.0000 O   0  0  0  0  0  0  0  0  0  0  0  0
  1  2  1  0
  2  3  1  0
  3  4  2  0
  3  5  1  0
  5  6  1  0
  6  7  1  0
  7  8  1  0
  8  9  1  0
  9 10  1  0
 10 11  1  0
 11 12  1  0
 12 13  2  0
 12 14  1  0
 14 15  1  0
 15 16  1  0
 16 17  1  0
 17 18  1  0
 18 19  1  0
 19 20  2  0
 19 21  1  0
 14 22  1  0
 22 23  1  0
 23 24  2  0
 23 25  1  0
 25 26  1  0
 26 27  1  0
 27 28  1  0
 28 29  1  0
 29 30  2  3
 30 31  1  0
 30 32  1  0
 27 33  1  0
 33 34  2  0
 33 35  1  0
 35 36  1  0
 36 37  1  0
 37 38  1  0
 38 39  1  0
 39 40  2  0
 40 41  1  0
 41 42  1  0
 42 43  2  0
 43 44  1  0
 44 45  2  0
 45 46  1  0
 46 47  2  0
 36 48  1  0
 48 49  2  0
 48 10  1  0
 47 39  1  0
 47 42  1  0
M  END
>  <molecule_chembl_id>  (409) 
CHEMBL2170017

>  <canonical_smiles>  (409) 
CCC(=O)CCCCCC1NC(=O)C(CCCNC(=N)N)NC(=O)CCN(CC=C(C)C)C(=O)CN(CCc2c[nH]c3ccccc23)C1=O

>  <pchembl_value_mean>  (409) 
5.92

>  <document_chembl_id>  (409) 
CHEMBL2169795

$$$$

     RDKit          2D

 27 29  0  0  0  0  0  0  0  0999 V2000
    3.0000    0.0000    0.0000 C   0  0  0  0  0  0  0  0  0  0  0  0
    1.5000    0.0000    0.0000 C   0  0  0  0  0  0  0  0  0  0  0  0
    0.7500   -1.2990    0.0000 C   0  0  0  0  0  0  0  0  0  0  0  0
   -0.7500   -1.2990    0.0000 C   0  0  0  0  0  0  0  0  0  0  0  0
   -1.5000    0.0000    0.0000 C   0  0  0  0  0  0  0  0  0  0  0  0
   -3.0000    0.0000    0.0000 C   0  0  0  0  0  0  0  0  0  0  0  0
   -3.8817   -1.2135    0.0000 C   0  0  0  0  0  0  0  0  0  0  0  0
   -5.3083   -0.7500    0.0000 C   0  0  0  0  0  0  0  0  0  0  0  0
   -6.5218   -1.6317    0.0000 C   0  0  0  0  0  0  0  0  0  0  0  0
   -7.7353   -2.5134    0.0000 F   0  0  0  0  0  0  0  0  0  0  0  0
   -7.4035   -0.4182    0.0000 F   0  0  0  0  0  0  0  0  0  0  0  0
   -5.6401   -2.8452    0.0000 F   0  0  0  0  0  0  0  0  0  0  0  0
   -5.3083    0.7500    0.0000 N   0  0  0  0  0  0  0  0  0  0  0  0
   -3.8817    1.2135    0.0000 N   0  0  0  0  0  0  0  0  0  0  0  0
   -3.4182    2.6401    0.0000 C   0  0  0  0  0  0  0  0  0  0  0  0
   -4.4218    3.7548    0.0000 C   0  0  0  0  0  0  0  0  0  0  0  0
   -3.9583    5.1814    0.0000 C   0  0  0  0  0  0  0  0  0  0  0  0
   -4.9620    6.2961    0.0000 C   0  0  0  0  0  0  0  0  0  0  0  0
   -6.4292    5.9843    0.0000 C   0  0  0  0  0  0  0  0  0  0  0  0
   -7.4329    7.0990    0.0000 C   0  0  0  0  0  0  0  0  0  0  0  0
   -8.9002    6.7871    0.0000 O   0  0  0  0  0  0  0  0  0  0  0  0
   -6.9694    8.5256    0.0000 N   0  0  0  0  0  0  0  0  0  0  0  0
   -7.9731    9.6403    0.0000 O   0  0  0  0  0  0  0  0  0  0  0  0
   -6.8928    4.5577    0.0000 C   0  0  0  0  0  0  0  0  0  0  0  0
   -5.8891    3.4430    0.0000 C   0  0  0  0  0  0  0  0  0  0  0  0
   -0.7500    1.2990    0.0000 C   0  0  0  0  0  0  0  0  0  0  0  0
    0.7500    1.2990    0.0000 C   0  0  0  0  0  0  0  0  0  0  0  0
  1  2  1  0
  2  3  2  0
  3  4  1  0
  4  5  2  0
  5  6  1  0
  6  7  2  0
  7  8  1  0
  8  9  1  0
  9 10  1  0
  9 11  1  0
  9 12  1  0
  8 13  2  0
 13 14  1  0
 14 15  1  0
 15 16  1  0
 16 17  2  0
 17 18  1  0
 18 19  2  0
 19 20  1  0
 20 21  2  0
 20 22  1  0
 22 23  1  0
 19 24  1  0
 24 25  2  0
  5 26  1  0
 26 27  2  0
 27  2  1  0
 14  6  1  0
 25 16  1  0
M  END
>  <molecule_chembl_id>  (410) 
CHEMBL4227770

>  <canonical_smiles>  (410) 
Cc1ccc(-c2cc(C(F)(F)F)nn2Cc2ccc(C(=O)NO)cc2)cc1

>  <pchembl_value_mean>  (410) 
5.92

>  <document_chembl_id>  (410) 
CHEMBL4219109

$$$$

     RDKit          2D

 42 46  0  0  0  0  0  0  0  0999 V2000
   12.7500  -11.6913    0.0000 N   0  0  0  0  0  0  0  0  0  0  0  0
   12.0000  -12.9904    0.0000 C   0  0  0  0  0  0  0  0  0  0  0  0
   12.7500  -14.2894    0.0000 C   0  0  0  0  0  0  0  0  0  0  0  0
   12.0000  -15.5885    0.0000 C   0  0  0  0  0  0  0  0  0  0  0  0
   10.5000  -15.5885    0.0000 C   0  0  0  0  0  0  0  0  0  0  0  0
    9.7500  -14.2894    0.0000 C   0  0  0  0  0  0  0  0  0  0  0  0
   10.5000  -12.9904    0.0000 C   0  0  0  0  0  0  0  0  0  0  0  0
    9.7500  -11.6913    0.0000 N   0  0  0  0  0  0  0  0  0  0  0  0
   10.5000  -10.3923    0.0000 C   0  0  0  0  0  0  0  0  0  0  0  0
   12.0000  -10.3923    0.0000 O   0  0  0  0  0  0  0  0  0  0  0  0
    9.7500   -9.0933    0.0000 C   0  0  0  0  0  0  0  0  0  0  0  0
   10.5000   -7.7942    0.0000 C   0  0  0  0  0  0  0  0  0  0  0  0
    9.7500   -6.4952    0.0000 C   0  0  0  0  0  0  0  0  0  0  0  0
    8.2500   -6.4952    0.0000 C   0  0  0  0  0  0  0  0  0  0  0  0
    7.5000   -5.1962    0.0000 N   0  0  0  0  0  0  0  0  0  0  0  0
    6.0000   -5.1962    0.0000 C   0  0  0  0  0  0  0  0  0  0  0  0
    5.2500   -6.4952    0.0000 O   0  0  0  0  0  0  0  0  0  0  0  0
    5.2500   -3.8971    0.0000 C   0  0  0  0  0  0  0  0  0  0  0  0
    3.7500   -3.8971    0.0000 C   0  0  0  0  0  0  0  0  0  0  0  0
    3.0000   -2.5981    0.0000 C   0  0  0  0  0  0  0  0  0  0  0  0
    1.5000   -2.5981    0.0000 N   0  0  0  0  0  0  0  0  0  0  0  0
    0.7500   -1.2990    0.0000 C   0  0  0  0  0  0  0  0  0  0  0  0
    1.5000    0.0000    0.0000 C   0  0  0  0  0  0  0  0  0  0  0  0
    0.7500    1.2990    0.0000 C   0  0  0  0  0  0  0  0  0  0  0  0
   -0.7500    1.2990    0.0000 C   0  0  0  0  0  0  0  0  0  0  0  0
   -1.5000    0.0000    0.0000 C   0  0  0  0  0  0  0  0  0  0  0  0
   -0.7500   -1.2990    0.0000 C   0  0  0  0  0  0  0  0  0  0  0  0
   -1.7537   -2.4138    0.0000 C   0  0  0  0  0  0  0  0  0  0  0  0
   -1.4418   -3.8810    0.0000 O   0  0  0  0  0  0  0  0  0  0  0  0
   -3.1240   -1.8037    0.0000 N   0  0  0  0  0  0  0  0  0  0  0  0
   -4.4231   -2.5537    0.0000 C   0  0  0  0  0  0  0  0  0  0  0  0
   -5.7221   -1.8037    0.0000 C   0  0  0  0  0  0  0  0  0  0  0  0
   -7.0211   -2.5537    0.0000 C   0  0  0  0  0  0  0  0  0  0  0  0
   -7.0211   -4.0537    0.0000 C   0  0  0  0  0  0  0  0  0  0  0  0
   -8.3202   -4.8037    0.0000 O   0  0  0  0  0  0  0  0  0  0  0  0
   -5.7221   -4.8037    0.0000 N   0  0  0  0  0  0  0  0  0  0  0  0
   -4.4231   -4.0537    0.0000 C   0  0  0  0  0  0  0  0  0  0  0  0
   -3.1240   -4.8037    0.0000 O   0  0  0  0  0  0  0  0  0  0  0  0
   -2.9672   -0.3119    0.0000 C   0  0  0  0  0  0  0  0  0  0  0  0
   -4.0819    0.6918    0.0000 O   0  0  0  0  0  0  0  0  0  0  0  0
    7.5000   -7.7942    0.0000 C   0  0  0  0  0  0  0  0  0  0  0  0
    8.2500   -9.0933    0.0000 C   0  0  0  0  0  0  0  0  0  0  0  0
  1  2  1  0
  2  3  2  0
  3  4  1  0
  4  5  2  0
  5  6  1  0
  6  7  2  0
  7  8  1  0
  8  9  1  0
  9 10  2  0
  9 11  1  0
 11 12  2  0
 12 13  1  0
 13 14  2  0
 14 15  1  0
 15 16  1  0
 16 17  2  0
 16 18  1  0
 18 19  1  0
 19 20  1  0
 20 21  1  0
 21 22  1  0
 22 23  2  0
 23 24  1  0
 24 25  2  0
 25 26  1  0
 26 27  2  0
 27 28  1  0
 28 29  2  0
 28 30  1  0
 30 31  1  0
 31 32  1  0
 32 33  1  0
 33 34  1  0
 34 35  2  0
 34 36  1  0
 36 37  1  0
 37 38  2  0
 30 39  1  0
 39 40  2  0
 14 41  1  0
 41 42  2  0
  7  2  1  0
 42 11  1  0
 27 22  1  0
 37 31  1  0
 39 26  1  0
M  END
>  <molecule_chembl_id>  (411) 
CHEMBL4758471

>  <canonical_smiles>  (411) 
Nc1ccccc1NC(=O)c1ccc(NC(=O)CCCNc2cccc3c2C(=O)N(C2CCC(=O)NC2=O)C3=O)cc1

>  <pchembl_value_mean>  (411) 
5.92

>  <document_chembl_id>  (411) 
CHEMBL4706593

$$$$

     RDKit          2D

 17 18  0  0  0  0  0  0  0  0999 V2000
    3.7500    1.2990    0.0000 O   0  0  0  0  0  0  0  0  0  0  0  0
    3.0000    0.0000    0.0000 C   0  0  0  0  0  0  0  0  0  0  0  0
    3.7500   -1.2990    0.0000 N   0  0  0  0  0  0  0  0  0  0  0  0
    5.2500   -1.2990    0.0000 O   0  0  0  0  0  0  0  0  0  0  0  0
    1.5000    0.0000    0.0000 C   0  0  0  0  0  0  0  0  0  0  0  0
    0.7500   -1.2990    0.0000 C   0  0  0  0  0  0  0  0  0  0  0  0
   -0.7500   -1.2990    0.0000 N   0  0  0  0  0  0  0  0  0  0  0  0
   -1.5000    0.0000    0.0000 C   0  0  0  0  0  0  0  0  0  0  0  0
   -3.0000    0.0000    0.0000 N   0  0  0  0  0  0  0  0  0  0  0  0
   -3.7500    1.2990    0.0000 C   0  0  0  0  0  0  0  0  0  0  0  0
   -3.0000    2.5981    0.0000 C   0  0  0  0  0  0  0  0  0  0  0  0
   -3.7500    3.8971    0.0000 C   0  0  0  0  0  0  0  0  0  0  0  0
   -5.2500    3.8971    0.0000 O   0  0  0  0  0  0  0  0  0  0  0  0
   -6.0000    2.5981    0.0000 C   0  0  0  0  0  0  0  0  0  0  0  0
   -5.2500    1.2990    0.0000 C   0  0  0  0  0  0  0  0  0  0  0  0
   -0.7500    1.2990    0.0000 N   0  0  0  0  0  0  0  0  0  0  0  0
    0.7500    1.2990    0.0000 C   0  0  0  0  0  0  0  0  0  0  0  0
  1  2  2  0
  2  3  1  0
  3  4  1  0
  2  5  1  0
  5  6  2  0
  6  7  1  0
  7  8  2  0
  8  9  1  0
  9 10  1  0
 10 11  1  0
 11 12  1  0
 12 13  1  0
 13 14  1  0
 14 15  1  0
  8 16  1  0
 16 17  2  0
 17  5  1  0
 15 10  1  0
M  END
>  <molecule_chembl_id>  (412) 
CHEMBL3655981

>  <canonical_smiles>  (412) 
O=C(NO)c1cnc(NC2CCOCC2)nc1

>  <pchembl_value_mean>  (412) 
5.93

>  <document_chembl_id>  (412) 
CHEMBL3639071

$$$$

     RDKit          2D

 29 32  0  0  0  0  0  0  0  0999 V2000
   -7.7942  -12.6073    0.0000 N   0  0  0  0  0  0  0  0  0  0  0  0
   -9.0933  -11.8573    0.0000 C   0  0  0  0  0  0  0  0  0  0  0  0
  -10.3923  -12.6073    0.0000 C   0  0  0  0  0  0  0  0  0  0  0  0
  -11.6913  -11.8573    0.0000 C   0  0  0  0  0  0  0  0  0  0  0  0
  -11.6913  -10.3573    0.0000 C   0  0  0  0  0  0  0  0  0  0  0  0
  -10.3923   -9.6073    0.0000 C   0  0  0  0  0  0  0  0  0  0  0  0
   -9.0933  -10.3573    0.0000 C   0  0  0  0  0  0  0  0  0  0  0  0
   -7.7942   -9.6073    0.0000 N   0  0  0  0  0  0  0  0  0  0  0  0
   -6.4952  -10.3573    0.0000 C   0  0  0  0  0  0  0  0  0  0  0  0
   -6.4952  -11.8573    0.0000 O   0  0  0  0  0  0  0  0  0  0  0  0
   -5.1962   -9.6073    0.0000 C   0  0  0  0  0  0  0  0  0  0  0  0
   -3.8971  -10.3573    0.0000 C   0  0  0  0  0  0  0  0  0  0  0  0
   -2.5981   -9.6073    0.0000 C   0  0  0  0  0  0  0  0  0  0  0  0
   -2.5981   -8.1073    0.0000 C   0  0  0  0  0  0  0  0  0  0  0  0
   -1.2990   -7.3573    0.0000 C   0  0  0  0  0  0  0  0  0  0  0  0
   -1.2990   -5.8573    0.0000 N   0  0  0  0  0  0  0  0  0  0  0  0
   -0.0000   -5.1073    0.0000 C   0  0  0  0  0  0  0  0  0  0  0  0
    1.2990   -5.8573    0.0000 O   0  0  0  0  0  0  0  0  0  0  0  0
   -0.0000   -3.6073    0.0000 C   0  0  0  0  0  0  0  0  0  0  0  0
    1.2135   -2.7256    0.0000 C   0  0  0  0  0  0  0  0  0  0  0  0
    0.7500   -1.2990    0.0000 C   0  0  0  0  0  0  0  0  0  0  0  0
    1.5000    0.0000    0.0000 C   0  0  0  0  0  0  0  0  0  0  0  0
    0.7500    1.2990    0.0000 C   0  0  0  0  0  0  0  0  0  0  0  0
   -0.7500    1.2990    0.0000 C   0  0  0  0  0  0  0  0  0  0  0  0
   -1.5000    0.0000    0.0000 C   0  0  0  0  0  0  0  0  0  0  0  0
   -0.7500   -1.2990    0.0000 C   0  0  0  0  0  0  0  0  0  0  0  0
   -1.2135   -2.7256    0.0000 O   0  0  0  0  0  0  0  0  0  0  0  0
   -3.8971   -7.3573    0.0000 C   0  0  0  0  0  0  0  0  0  0  0  0
   -5.1962   -8.1073    0.0000 C   0  0  0  0  0  0  0  0  0  0  0  0
  1  2  1  0
  2  3  2  0
  3  4  1  0
  4  5  2  0
  5  6  1  0
  6  7  2  0
  7  8  1  0
  8  9  1  0
  9 10  2  0
  9 11  1  0
 11 12  2  0
 12 13  1  0
 13 14  2  0
 14 15  1  0
 15 16  1  0
 16 17  1  0
 17 18  2  0
 17 19  1  0
 19 20  2  0
 20 21  1  0
 21 22  2  0
 22 23  1  0
 23 24  2  0
 24 25  1  0
 25 26  2  0
 26 27  1  0
 14 28  1  0
 28 29  2  0
  7  2  1  0
 29 11  1  0
 27 19  1  0
 26 21  1  0
M  END
>  <molecule_chembl_id>  (413) 
CHEMBL3673100

>  <canonical_smiles>  (413) 
Nc1ccccc1NC(=O)c1ccc(CNC(=O)c2cc3ccccc3o2)cc1

>  <pchembl_value_mean>  (413) 
5.935

>  <document_chembl_id>  (413) 
CHEMBL3638911

$$$$

     RDKit          2D

 31 34  0  0  0  0  0  0  0  0999 V2000
    1.5342   -9.4474    0.0000 O   0  0  0  0  0  0  0  0  0  0  0  0
    0.3207   -8.5658    0.0000 C   0  0  0  0  0  0  0  0  0  0  0  0
    0.4775   -7.0740    0.0000 C   0  0  0  0  0  0  0  0  0  0  0  0
    1.8478   -6.4639    0.0000 C   0  0  0  0  0  0  0  0  0  0  0  0
    2.0046   -4.9721    0.0000 C   0  0  0  0  0  0  0  0  0  0  0  0
    0.8899   -3.9684    0.0000 C   0  0  0  0  0  0  0  0  0  0  0  0
    1.5000   -2.5981    0.0000 N   0  0  0  0  0  0  0  0  0  0  0  0
    0.7500   -1.2990    0.0000 C   0  0  0  0  0  0  0  0  0  0  0  0
    1.5000    0.0000    0.0000 C   0  0  0  0  0  0  0  0  0  0  0  0
    0.7500    1.2990    0.0000 C   0  0  0  0  0  0  0  0  0  0  0  0
   -0.7500    1.2990    0.0000 C   0  0  0  0  0  0  0  0  0  0  0  0
   -1.5000    0.0000    0.0000 C   0  0  0  0  0  0  0  0  0  0  0  0
   -0.7500   -1.2990    0.0000 C   0  0  0  0  0  0  0  0  0  0  0  0
    2.9918   -2.7549    0.0000 N   0  0  0  0  0  0  0  0  0  0  0  0
    3.3037   -4.2221    0.0000 C   0  0  0  0  0  0  0  0  0  0  0  0
    4.6740   -4.8322    0.0000 C   0  0  0  0  0  0  0  0  0  0  0  0
    4.8308   -6.3240    0.0000 C   0  0  0  0  0  0  0  0  0  0  0  0
    6.2011   -6.9341    0.0000 C   0  0  0  0  0  0  0  0  0  0  0  0
    7.4146   -6.0524    0.0000 C   0  0  0  0  0  0  0  0  0  0  0  0
    8.7849   -6.6625    0.0000 N   0  0  0  0  0  4  0  0  0  0  0  0
    9.9984   -5.7808    0.0000 O   0  0  0  0  0  0  0  0  0  0  0  0
    8.9417   -8.1543    0.0000 O   0  0  0  0  0  1  0  0  0  0  0  0
    7.2578   -4.5606    0.0000 C   0  0  0  0  0  0  0  0  0  0  0  0
    5.8875   -3.9505    0.0000 C   0  0  0  0  0  0  0  0  0  0  0  0
   -1.0496   -9.1759    0.0000 N   0  0  0  0  0  0  0  0  0  0  0  0
   -1.2064  -10.6676    0.0000 C   0  0  0  0  0  0  0  0  0  0  0  0
   -2.5767  -11.2778    0.0000 C   0  0  0  0  0  0  0  0  0  0  0  0
   -2.7335  -12.7695    0.0000 C   0  0  0  0  0  0  0  0  0  0  0  0
   -1.5200  -13.6512    0.0000 C   0  0  0  0  0  0  0  0  0  0  0  0
   -0.1497  -13.0411    0.0000 C   0  0  0  0  0  0  0  0  0  0  0  0
    0.0071  -11.5493    0.0000 C   0  0  0  0  0  0  0  0  0  0  0  0
  1  2  2  0
  2  3  1  0
  3  4  2  3
  4  5  1  0
  5  6  2  0
  6  7  1  0
  7  8  1  0
  8  9  2  0
  9 10  1  0
 10 11  2  0
 11 12  1  0
 12 13  2  0
  7 14  1  0
 14 15  2  0
 15 16  1  0
 16 17  2  0
 17 18  1  0
 18 19  2  0
 19 20  1  0
 20 21  2  0
 20 22  1  0
 19 23  1  0
 23 24  2  0
  2 25  1  0
 25 26  1  0
 26 27  2  0
 27 28  1  0
 28 29  2  0
 29 30  1  0
 30 31  2  0
 15  5  1  0
 24 16  1  0
 31 26  1  0
 13  8  1  0
M  CHG  2  20   1  22  -1
M  END
>  <molecule_chembl_id>  (414) 
CHEMBL2047617

>  <canonical_smiles>  (414) 
O=C(C=Cc1cn(-c2ccccc2)nc1-c1ccc([N+](=O)[O-])cc1)Nc1ccccc1

>  <pchembl_value_mean>  (414) 
5.94

>  <document_chembl_id>  (414) 
CHEMBL2046430

$$$$

     RDKit          2D

 24 25  0  0  0  0  0  0  0  0999 V2000
    3.0000    0.0000    0.0000 C   0  0  0  0  0  0  0  0  0  0  0  0
    1.5000    0.0000    0.0000 C   0  0  0  0  0  0  0  0  0  0  0  0
    0.7500   -1.2990    0.0000 C   0  0  0  0  0  0  0  0  0  0  0  0
   -0.7500   -1.2990    0.0000 C   0  0  0  0  0  0  0  0  0  0  0  0
   -1.5000    0.0000    0.0000 C   0  0  0  0  0  0  0  0  0  0  0  0
   -3.0000    0.0000    0.0000 N   0  0  0  0  0  0  0  0  0  0  0  0
   -3.7500    1.2990    0.0000 C   0  0  0  0  0  0  0  0  0  0  0  0
   -5.2500    1.2990    0.0000 C   0  0  0  0  0  0  0  0  0  0  0  0
   -6.0000    2.5981    0.0000 C   0  0  0  0  0  0  0  0  0  0  0  0
   -7.5000    2.5981    0.0000 C   0  0  0  0  0  0  0  0  0  0  0  0
   -8.2500    3.8971    0.0000 C   0  0  0  0  0  0  0  0  0  0  0  0
   -9.7500    3.8971    0.0000 C   0  0  0  0  0  0  0  0  0  0  0  0
  -10.5000    5.1962    0.0000 C   0  0  0  0  0  0  0  0  0  0  0  0
   -9.7500    6.4952    0.0000 O   0  0  0  0  0  0  0  0  0  0  0  0
  -12.0000    5.1962    0.0000 N   0  0  0  0  0  0  0  0  0  0  0  0
  -12.7500    6.4952    0.0000 O   0  0  0  0  0  0  0  0  0  0  0  0
   -3.7500   -1.2990    0.0000 C   0  0  0  0  0  0  0  0  0  0  0  0
   -5.2500   -1.2990    0.0000 C   0  0  0  0  0  0  0  0  0  0  0  0
   -6.0000   -2.5981    0.0000 C   0  0  0  0  0  0  0  0  0  0  0  0
   -5.2500   -3.8971    0.0000 C   0  0  0  0  0  0  0  0  0  0  0  0
   -3.7500   -3.8971    0.0000 C   0  0  0  0  0  0  0  0  0  0  0  0
   -3.0000   -2.5981    0.0000 N   0  0  0  0  0  0  0  0  0  0  0  0
   -0.7500    1.2990    0.0000 N   0  0  0  0  0  0  0  0  0  0  0  0
    0.7500    1.2990    0.0000 C   0  0  0  0  0  0  0  0  0  0  0  0
  1  2  1  0
  2  3  2  0
  3  4  1  0
  4  5  2  0
  5  6  1  0
  6  7  1  0
  7  8  1  0
  8  9  1  0
  9 10  1  0
 10 11  1  0
 11 12  1  0
 12 13  1  0
 13 14  2  0
 13 15  1  0
 15 16  1  0
  6 17  1  0
 17 18  2  0
 18 19  1  0
 19 20  2  0
 20 21  1  0
 21 22  2  0
  5 23  1  0
 23 24  2  0
 24  2  1  0
 22 17  1  0
M  END
>  <molecule_chembl_id>  (415) 
CHEMBL3675761

>  <canonical_smiles>  (415) 
Cc1ccc(N(CCCCCCC(=O)NO)c2ccccn2)nc1

>  <pchembl_value_mean>  (415) 
5.94

>  <document_chembl_id>  (415) 
CHEMBL3639343

$$$$

     RDKit          2D

 20 21  0  0  0  0  0  0  0  0999 V2000
    3.7500   -1.2990    0.0000 C   0  0  0  0  0  0  0  0  0  0  0  0
    3.0000    0.0000    0.0000 O   0  0  0  0  0  0  0  0  0  0  0  0
    1.5000    0.0000    0.0000 C   0  0  0  0  0  0  0  0  0  0  0  0
    0.7500   -1.2990    0.0000 C   0  0  0  0  0  0  0  0  0  0  0  0
   -0.7500   -1.2990    0.0000 C   0  0  0  0  0  0  0  0  0  0  0  0
   -1.5000    0.0000    0.0000 C   0  0  0  0  0  0  0  0  0  0  0  0
   -3.0000    0.0000    0.0000 C   0  0  0  0  0  0  0  0  0  0  0  0
   -3.7500    1.2990    0.0000 C   0  0  0  0  0  0  0  0  0  0  0  0
   -5.2500    1.2990    0.0000 C   0  0  0  0  0  0  0  0  0  0  0  0
   -6.0000    0.0000    0.0000 C   0  0  0  0  0  0  0  0  0  0  0  0
   -7.5000    0.0000    0.0000 C   0  0  0  0  0  0  0  0  0  0  0  0
   -8.2500    1.2990    0.0000 C   0  0  0  0  0  0  0  0  0  0  0  0
   -9.7500    1.2990    0.0000 C   0  0  0  0  0  0  0  0  0  0  0  0
  -10.5000    0.0000    0.0000 O   0  0  0  0  0  0  0  0  0  0  0  0
  -10.5000    2.5981    0.0000 N   0  0  0  0  0  0  0  0  0  0  0  0
  -12.0000    2.5981    0.0000 O   0  0  0  0  0  0  0  0  0  0  0  0
   -5.2500   -1.2990    0.0000 C   0  0  0  0  0  0  0  0  0  0  0  0
   -3.7500   -1.2990    0.0000 C   0  0  0  0  0  0  0  0  0  0  0  0
   -0.7500    1.2990    0.0000 C   0  0  0  0  0  0  0  0  0  0  0  0
    0.7500    1.2990    0.0000 C   0  0  0  0  0  0  0  0  0  0  0  0
  1  2  1  0
  2  3  1  0
  3  4  2  0
  4  5  1  0
  5  6  2  0
  6  7  1  0
  7  8  2  0
  8  9  1  0
  9 10  2  0
 10 11  1  0
 11 12  2  3
 12 13  1  0
 13 14  2  0
 13 15  1  0
 15 16  1  0
 10 17  1  0
 17 18  2  0
  6 19  1  0
 19 20  2  0
 20  3  1  0
 18  7  1  0
M  END
>  <molecule_chembl_id>  (416) 
CHEMBL561209

>  <canonical_smiles>  (416) 
COc1ccc(-c2ccc(C=CC(=O)NO)cc2)cc1

>  <pchembl_value_mean>  (416) 
5.94

>  <document_chembl_id>  (416) 
CHEMBL1158371

$$$$

     RDKit          2D

 39 43  0  0  0  0  0  0  0  0999 V2000
    3.7500   -1.2990    0.0000 C   0  0  0  0  0  0  0  0  0  0  0  0
    3.0000    0.0000    0.0000 O   0  0  0  0  0  0  0  0  0  0  0  0
    1.5000    0.0000    0.0000 C   0  0  0  0  0  0  0  0  0  0  0  0
    0.7500   -1.2990    0.0000 C   0  0  0  0  0  0  0  0  0  0  0  0
   -0.7500   -1.2990    0.0000 C   0  0  0  0  0  0  0  0  0  0  0  0
   -1.5000    0.0000    0.0000 C   0  0  0  0  0  0  0  0  0  0  0  0
   -3.0000    0.0000    0.0000 C   0  0  0  0  0  0  0  0  0  0  0  0
   -3.8817   -1.2135    0.0000 C   0  0  0  0  0  0  0  0  0  0  0  0
   -5.3083   -0.7500    0.0000 C   0  0  0  0  0  0  0  0  0  0  0  0
   -6.5218   -1.6317    0.0000 C   0  0  0  0  0  0  0  0  0  0  0  0
   -7.8921   -1.0216    0.0000 C   0  0  0  0  0  0  0  0  0  0  0  0
   -9.1056   -1.9033    0.0000 C   0  0  0  0  0  0  0  0  0  0  0  0
   -8.9488   -3.3950    0.0000 C   0  0  0  0  0  0  0  0  0  0  0  0
   -7.5785   -4.0051    0.0000 C   0  0  0  0  0  0  0  0  0  0  0  0
   -6.3650   -3.1235    0.0000 C   0  0  0  0  0  0  0  0  0  0  0  0
   -5.3083    0.7500    0.0000 N   0  0  0  0  0  0  0  0  0  0  0  0
   -3.8817    1.2135    0.0000 C   0  0  0  0  0  0  0  0  0  0  0  0
   -3.4182    2.6401    0.0000 C   0  0  0  0  0  0  0  0  0  0  0  0
   -1.9509    2.9520    0.0000 O   0  0  0  0  0  0  0  0  0  0  0  0
   -4.4218    3.7548    0.0000 N   0  0  0  0  0  0  0  0  0  0  0  0
   -3.9583    5.1814    0.0000 C   0  0  0  0  0  0  0  0  0  0  0  0
   -4.9620    6.2961    0.0000 C   0  0  0  0  0  0  0  0  0  0  0  0
   -4.4985    7.7227    0.0000 C   0  0  0  0  0  0  0  0  0  0  0  0
   -5.5022    8.8374    0.0000 C   0  0  0  0  0  0  0  0  0  0  0  0
   -6.9694    8.5256    0.0000 C   0  0  0  0  0  0  0  0  0  0  0  0
   -7.9731    9.6403    0.0000 C   0  0  0  0  0  0  0  0  0  0  0  0
   -9.4403    9.3284    0.0000 O   0  0  0  0  0  0  0  0  0  0  0  0
   -7.5096   11.0669    0.0000 N   0  0  0  0  0  0  0  0  0  0  0  0
   -8.5133   12.1816    0.0000 C   0  0  0  0  0  0  0  0  0  0  0  0
   -8.0498   13.6082    0.0000 C   0  0  0  0  0  0  0  0  0  0  0  0
   -9.0534   14.7229    0.0000 C   0  0  0  0  0  0  0  0  0  0  0  0
  -10.5207   14.4110    0.0000 C   0  0  0  0  0  0  0  0  0  0  0  0
  -10.9842   12.9844    0.0000 C   0  0  0  0  0  0  0  0  0  0  0  0
   -9.9805   11.8697    0.0000 C   0  0  0  0  0  0  0  0  0  0  0  0
  -10.4440   10.4431    0.0000 N   0  0  0  0  0  0  0  0  0  0  0  0
   -7.4329    7.0990    0.0000 C   0  0  0  0  0  0  0  0  0  0  0  0
   -6.4292    5.9843    0.0000 C   0  0  0  0  0  0  0  0  0  0  0  0
   -0.7500    1.2990    0.0000 C   0  0  0  0  0  0  0  0  0  0  0  0
    0.7500    1.2990    0.0000 C   0  0  0  0  0  0  0  0  0  0  0  0
  1  2  1  0
  2  3  1  0
  3  4  2  0
  4  5  1  0
  5  6  2  0
  6  7  1  0
  7  8  1  0
  8  9  2  0
  9 10  1  0
 10 11  2  0
 11 12  1  0
 12 13  2  0
 13 14  1  0
 14 15  2  0
  9 16  1  0
 16 17  1  0
 17 18  1  0
 18 19  2  0
 18 20  1  0
 20 21  1  0
 21 22  1  0
 22 23  2  0
 23 24  1  0
 24 25  2  0
 25 26  1  0
 26 27  2  0
 26 28  1  0
 28 29  1  0
 29 30  2  0
 30 31  1  0
 31 32  2  0
 32 33  1  0
 33 34  2  0
 34 35  1  0
 25 36  1  0
 36 37  2  0
  6 38  1  0
 38 39  2  0
 39  3  1  0
 17  7  2  0
 37 22  1  0
 15 10  1  0
 34 29  1  0
M  END
>  <molecule_chembl_id>  (417) 
CHEMBL3670666

>  <canonical_smiles>  (417) 
COc1ccc(-c2cc(-c3ccccc3)[nH]c2C(=O)NCc2ccc(C(=O)Nc3ccccc3N)cc2)cc1

>  <pchembl_value_mean>  (417) 
5.94

>  <document_chembl_id>  (417) 
CHEMBL3638813

$$$$

     RDKit          2D

 29 32  0  0  0  0  0  0  0  0999 V2000
   -2.9499    4.2246    0.0000 N   0  0  0  0  0  0  0  0  0  0  0  0
   -1.8351    3.2209    0.0000 C   0  0  0  0  0  0  0  0  0  0  0  0
   -0.4086    3.6844    0.0000 N   0  0  0  0  0  0  0  0  0  0  0  0
    0.7062    2.6807    0.0000 C   0  0  0  0  0  0  0  0  0  0  0  0
    2.1328    3.1443    0.0000 Cl  0  0  0  0  0  0  0  0  0  0  0  0
    0.3943    1.2135    0.0000 C   0  0  0  0  0  0  0  0  0  0  0  0
    1.2760    0.0000    0.0000 C   0  0  0  0  0  0  0  0  0  0  0  0
    0.3943   -1.2135    0.0000 C   0  0  0  0  0  0  0  0  0  0  0  0
   -1.0323   -0.7500    0.0000 N   0  0  0  0  0  0  0  0  0  0  0  0
   -2.2458   -1.6317    0.0000 C   0  0  0  0  0  0  0  0  0  0  0  0
   -2.0890   -3.1235    0.0000 C   0  0  0  0  0  0  0  0  0  0  0  0
   -3.3025   -4.0051    0.0000 C   0  0  0  0  0  0  0  0  0  0  0  0
   -3.1458   -5.4969    0.0000 C   0  0  0  0  0  0  0  0  0  0  0  0
   -1.7754   -6.1070    0.0000 C   0  0  0  0  0  0  0  0  0  0  0  0
   -1.6186   -7.5988    0.0000 C   0  0  0  0  0  0  0  0  0  0  0  0
   -0.2483   -8.2089    0.0000 O   0  0  0  0  0  0  0  0  0  0  0  0
   -2.8322   -8.4805    0.0000 N   0  0  0  0  0  0  0  0  0  0  0  0
   -2.6754   -9.9723    0.0000 C   0  0  0  0  0  0  0  0  0  0  0  0
   -3.8889  -10.8539    0.0000 C   0  0  0  0  0  0  0  0  0  0  0  0
   -3.7321  -12.3457    0.0000 C   0  0  0  0  0  0  0  0  0  0  0  0
   -4.9456  -13.2274    0.0000 F   0  0  0  0  0  0  0  0  0  0  0  0
   -2.3618  -12.9558    0.0000 C   0  0  0  0  0  0  0  0  0  0  0  0
   -1.1483  -12.0742    0.0000 C   0  0  0  0  0  0  0  0  0  0  0  0
   -1.3051  -10.5824    0.0000 C   0  0  0  0  0  0  0  0  0  0  0  0
   -0.0915   -9.7007    0.0000 N   0  0  0  0  0  0  0  0  0  0  0  0
   -0.5619   -5.2253    0.0000 C   0  0  0  0  0  0  0  0  0  0  0  0
   -0.7187   -3.7336    0.0000 C   0  0  0  0  0  0  0  0  0  0  0  0
   -1.0323    0.7500    0.0000 C   0  0  0  0  0  0  0  0  0  0  0  0
   -2.1470    1.7537    0.0000 N   0  0  0  0  0  0  0  0  0  0  0  0
  1  2  1  0
  2  3  2  0
  3  4  1  0
  4  5  1  0
  4  6  2  0
  6  7  1  0
  7  8  2  0
  8  9  1  0
  9 10  1  0
 10 11  1  0
 11 12  2  0
 12 13  1  0
 13 14  2  0
 14 15  1  0
 15 16  2  0
 15 17  1  0
 17 18  1  0
 18 19  2  0
 19 20  1  0
 20 21  1  0
 20 22  2  0
 22 23  1  0
 23 24  2  0
 24 25  1  0
 14 26  1  0
 26 27  2  0
  9 28  1  0
 28 29  2  0
 29  2  1  0
 28  6  1  0
 27 11  1  0
 24 18  1  0
M  END
>  <molecule_chembl_id>  (418) 
CHEMBL4790853

>  <canonical_smiles>  (418) 
Nc1nc(Cl)c2ccn(Cc3ccc(C(=O)Nc4cc(F)ccc4N)cc3)c2n1

>  <pchembl_value_mean>  (418) 
5.94

>  <document_chembl_id>  (418) 
CHEMBL4765296

$$$$

     RDKit          2D

 33 36  0  0  0  0  0  0  0  0999 V2000
    3.7500   -1.2990    0.0000 C   0  0  0  0  0  0  0  0  0  0  0  0
    3.0000    0.0000    0.0000 O   0  0  0  0  0  0  0  0  0  0  0  0
    1.5000    0.0000    0.0000 C   0  0  0  0  0  0  0  0  0  0  0  0
    0.7500   -1.2990    0.0000 C   0  0  0  0  0  0  0  0  0  0  0  0
   -0.7500   -1.2990    0.0000 C   0  0  0  0  0  0  0  0  0  0  0  0
   -1.5000    0.0000    0.0000 C   0  0  0  0  0  0  0  0  0  0  0  0
   -3.0000    0.0000    0.0000 N   0  0  0  0  0  0  0  0  0  0  0  0
   -3.7500    1.2990    0.0000 C   0  0  0  0  0  0  0  0  0  0  0  0
   -3.0000    2.5981    0.0000 O   0  0  0  0  0  0  0  0  0  0  0  0
   -5.2500    1.2990    0.0000 C   0  0  0  0  0  0  0  0  0  0  0  0
   -6.0000    2.5981    0.0000 C   0  0  0  0  0  0  0  0  0  0  0  0
   -7.5000    2.5981    0.0000 C   0  0  0  0  0  0  0  0  0  0  0  0
   -8.3817    1.3846    0.0000 C   0  0  0  0  0  0  0  0  0  0  0  0
   -9.8083    1.8481    0.0000 N   0  0  0  0  0  0  0  0  0  0  0  0
  -11.0218    0.9664    0.0000 C   0  0  0  0  0  0  0  0  0  0  0  0
  -12.3921    1.5765    0.0000 C   0  0  0  0  0  0  0  0  0  0  0  0
  -13.6056    0.6948    0.0000 C   0  0  0  0  0  0  0  0  0  0  0  0
  -13.4488   -0.7970    0.0000 C   0  0  0  0  0  0  0  0  0  0  0  0
  -12.0785   -1.4071    0.0000 C   0  0  0  0  0  0  0  0  0  0  0  0
  -10.8650   -0.5254    0.0000 C   0  0  0  0  0  0  0  0  0  0  0  0
   -9.8083    3.3481    0.0000 N   0  0  0  0  0  0  0  0  0  0  0  0
   -8.3817    3.8116    0.0000 C   0  0  0  0  0  0  0  0  0  0  0  0
   -7.9182    5.2382    0.0000 C   0  0  0  0  0  0  0  0  0  0  0  0
   -6.4509    5.5501    0.0000 C   0  0  0  0  0  0  0  0  0  0  0  0
   -5.9874    6.9766    0.0000 C   0  0  0  0  0  0  0  0  0  0  0  0
   -6.9911    8.0914    0.0000 C   0  0  0  0  0  0  0  0  0  0  0  0
   -6.5276    9.5179    0.0000 N   0  0  0  0  0  4  0  0  0  0  0  0
   -7.5313   10.6327    0.0000 O   0  0  0  0  0  0  0  0  0  0  0  0
   -5.0604    9.8298    0.0000 O   0  0  0  0  0  1  0  0  0  0  0  0
   -8.4583    7.7795    0.0000 C   0  0  0  0  0  0  0  0  0  0  0  0
   -8.9218    6.3529    0.0000 C   0  0  0  0  0  0  0  0  0  0  0  0
   -0.7500    1.2990    0.0000 C   0  0  0  0  0  0  0  0  0  0  0  0
    0.7500    1.2990    0.0000 C   0  0  0  0  0  0  0  0  0  0  0  0
  1  2  1  0
  2  3  1  0
  3  4  2  0
  4  5  1  0
  5  6  2  0
  6  7  1  0
  7  8  1  0
  8  9  2  0
  8 10  1  0
 10 11  2  3
 11 12  1  0
 12 13  2  0
 13 14  1  0
 14 15  1  0
 15 16  2  0
 16 17  1  0
 17 18  2  0
 18 19  1  0
 19 20  2  0
 14 21  1  0
 21 22  2  0
 22 23  1  0
 23 24  2  0
 24 25  1  0
 25 26  2  0
 26 27  1  0
 27 28  2  0
 27 29  1  0
 26 30  1  0
 30 31  2  0
  6 32  1  0
 32 33  2  0
 33  3  1  0
 22 12  1  0
 31 23  1  0
 20 15  1  0
M  CHG  2  27   1  29  -1
M  END
>  <molecule_chembl_id>  (419) 
CHEMBL2047620

>  <canonical_smiles>  (419) 
COc1ccc(NC(=O)C=Cc2cn(-c3ccccc3)nc2-c2ccc([N+](=O)[O-])cc2)cc1

>  <pchembl_value_mean>  (419) 
5.94

>  <document_chembl_id>  (419) 
CHEMBL2046430

$$$$

     RDKit          2D

 28 31  0  0  0  0  0  0  0  0999 V2000
    7.5000   -7.7942    0.0000 O   0  0  0  0  0  0  0  0  0  0  0  0
    6.0000   -7.7942    0.0000 C   0  0  0  0  0  0  0  0  0  0  0  0
    5.2500   -9.0933    0.0000 N   0  0  0  0  0  0  0  0  0  0  0  0
    6.0000  -10.3923    0.0000 O   0  0  0  0  0  0  0  0  0  0  0  0
    5.2500   -6.4952    0.0000 C   0  0  0  0  0  0  0  0  0  0  0  0
    3.7500   -6.4952    0.0000 C   0  0  0  0  0  0  0  0  0  0  0  0
    3.0000   -5.1962    0.0000 C   0  0  0  0  0  0  0  0  0  0  0  0
    3.7500   -3.8971    0.0000 C   0  0  0  0  0  0  0  0  0  0  0  0
    3.0000   -2.5981    0.0000 C   0  0  0  0  0  0  0  0  0  0  0  0
    1.5000   -2.5981    0.0000 N   0  0  0  0  0  0  0  0  0  0  0  0
    0.7500   -1.2990    0.0000 C   0  0  0  0  0  0  0  0  0  0  0  0
    1.5000    0.0000    0.0000 C   0  0  0  0  0  0  0  0  0  0  0  0
    0.7500    1.2990    0.0000 C   0  0  0  0  0  0  0  0  0  0  0  0
   -0.7500    1.2990    0.0000 C   0  0  0  0  0  0  0  0  0  0  0  0
   -1.5000    0.0000    0.0000 C   0  0  0  0  0  0  0  0  0  0  0  0
   -0.7500   -1.2990    0.0000 C   0  0  0  0  0  0  0  0  0  0  0  0
   -1.5000   -2.5981    0.0000 N   0  0  0  0  0  0  0  0  0  0  0  0
   -0.7500   -3.8971    0.0000 C   0  0  0  0  0  0  0  0  0  0  0  0
   -1.5000   -5.1962    0.0000 O   0  0  0  0  0  0  0  0  0  0  0  0
    0.7500   -3.8971    0.0000 C   0  0  0  0  0  0  0  0  0  0  0  0
    1.5000   -5.1962    0.0000 C   0  0  0  0  0  0  0  0  0  0  0  0
    0.7500   -6.4952    0.0000 C   0  0  0  0  0  0  0  0  0  0  0  0
    1.3601   -7.8655    0.0000 C   0  0  0  0  0  0  0  0  0  0  0  0
    0.2454   -8.8692    0.0000 C   0  0  0  0  0  0  0  0  0  0  0  0
   -1.0537   -8.1192    0.0000 C   0  0  0  0  0  0  0  0  0  0  0  0
   -0.7418   -6.6520    0.0000 S   0  0  0  0  0  0  0  0  0  0  0  0
    5.2500   -3.8971    0.0000 C   0  0  0  0  0  0  0  0  0  0  0  0
    6.0000   -5.1962    0.0000 C   0  0  0  0  0  0  0  0  0  0  0  0
  1  2  2  0
  2  3  1  0
  3  4  1  0
  2  5  1  0
  5  6  2  0
  6  7  1  0
  7  8  2  0
  8  9  1  0
  9 10  1  0
 10 11  1  0
 11 12  2  0
 12 13  1  0
 13 14  2  0
 14 15  1  0
 15 16  2  0
 16 17  1  0
 17 18  1  0
 18 19  2  0
 18 20  1  0
 20 21  1  0
 21 22  1  0
 22 23  2  0
 23 24  1  0
 24 25  2  0
 25 26  1  0
  8 27  1  0
 27 28  2  0
 28  5  1  0
 20 10  1  0
 26 22  1  0
 16 11  1  0
M  END
>  <molecule_chembl_id>  (420) 
CHEMBL518957

>  <canonical_smiles>  (420) 
O=C(NO)c1ccc(CN2c3ccccc3NC(=O)C2Cc2cccs2)cc1

>  <pchembl_value_mean>  (420) 
5.945

>  <document_chembl_id>  (420) 
CHEMBL1143301

$$$$

     RDKit          2D

 50 54  0  0  0  0  0  0  0  0999 V2000
    9.7500   -9.0933    0.0000 C   0  0  0  0  0  0  0  0  0  0  0  0
   10.5000   -7.7942    0.0000 O   0  0  0  0  0  0  0  0  0  0  0  0
    9.7500   -6.4952    0.0000 C   0  0  0  0  0  0  0  0  0  0  0  0
    8.2500   -6.4952    0.0000 C   0  0  0  0  0  0  0  0  0  0  0  0
    7.5000   -5.1962    0.0000 C   0  0  0  0  0  0  0  0  0  0  0  0
    8.2500   -3.8971    0.0000 C   0  0  0  0  0  0  0  0  0  0  0  0
    7.5000   -2.5981    0.0000 C   0  0  0  0  0  0  0  0  0  0  0  0
    6.0000   -2.5981    0.0000 N   0  0  0  0  0  0  0  0  0  0  0  0
    5.2500   -1.2990    0.0000 C   0  0  0  0  0  0  0  0  0  0  0  0
    3.7500   -1.2990    0.0000 C   0  0  0  0  0  0  0  0  0  0  0  0
    3.0000   -2.5981    0.0000 C   0  0  0  0  0  0  0  0  0  0  0  0
    1.5000   -2.5981    0.0000 N   0  0  0  0  0  0  0  0  0  0  0  0
    0.7500   -1.2990    0.0000 C   0  0  0  0  0  0  0  0  0  0  0  0
    1.5000    0.0000    0.0000 N   0  0  0  0  0  0  0  0  0  0  0  0
    0.7500    1.2990    0.0000 C   0  0  0  0  0  0  0  0  0  0  0  0
    1.5000    2.5981    0.0000 N   0  0  0  0  0  0  0  0  0  0  0  0
    3.0000    2.5981    0.0000 C   0  0  0  0  0  0  0  0  0  0  0  0
    3.7500    1.2990    0.0000 C   0  0  0  0  0  0  0  0  0  0  0  0
    5.2500    1.2990    0.0000 C   0  0  0  0  0  0  0  0  0  0  0  0
    6.0000    2.5981    0.0000 C   0  0  0  0  0  0  0  0  0  0  0  0
    7.5000    2.5981    0.0000 N   0  0  0  0  0  0  0  0  0  0  0  0
    8.2500    1.2990    0.0000 C   0  0  0  0  0  0  0  0  0  0  0  0
    7.5000   -0.0000    0.0000 O   0  0  0  0  0  0  0  0  0  0  0  0
    9.7500    1.2990    0.0000 C   0  0  0  0  0  0  0  0  0  0  0  0
   10.5000   -0.0000    0.0000 C   0  0  0  0  0  0  0  0  0  0  0  0
   12.0000   -0.0000    0.0000 C   0  0  0  0  0  0  0  0  0  0  0  0
   12.7500   -1.2990    0.0000 C   0  0  0  0  0  0  0  0  0  0  0  0
   14.2500   -1.2990    0.0000 C   0  0  0  0  0  0  0  0  0  0  0  0
   15.0000   -2.5981    0.0000 C   0  0  0  0  0  0  0  0  0  0  0  0
   16.5000   -2.5981    0.0000 C   0  0  0  0  0  0  0  0  0  0  0  0
   17.2500   -1.2990    0.0000 O   0  0  0  0  0  0  0  0  0  0  0  0
   17.2500   -3.8971    0.0000 N   0  0  0  0  0  0  0  0  0  0  0  0
   18.7500   -3.8971    0.0000 O   0  0  0  0  0  0  0  0  0  0  0  0
    5.2500    3.8971    0.0000 C   0  0  0  0  0  0  0  0  0  0  0  0
    3.7500    3.8971    0.0000 C   0  0  0  0  0  0  0  0  0  0  0  0
   -0.7500    1.2990    0.0000 N   0  0  0  0  0  0  0  0  0  0  0  0
   -1.5000    0.0000    0.0000 C   0  0  0  0  0  0  0  0  0  0  0  0
   -3.0000    0.0000    0.0000 C   0  0  0  0  0  0  0  0  0  0  0  0
   -3.7500   -1.2990    0.0000 C   0  0  0  0  0  0  0  0  0  0  0  0
   -5.2500   -1.2990    0.0000 O   0  0  0  0  0  0  0  0  0  0  0  0
   -6.0000    0.0000    0.0000 C   0  0  0  0  0  0  0  0  0  0  0  0
   -3.0000   -2.5981    0.0000 C   0  0  0  0  0  0  0  0  0  0  0  0
   -3.7500   -3.8971    0.0000 O   0  0  0  0  0  0  0  0  0  0  0  0
   -5.2500   -3.8971    0.0000 C   0  0  0  0  0  0  0  0  0  0  0  0
   -1.5000   -2.5981    0.0000 C   0  0  0  0  0  0  0  0  0  0  0  0
   -0.7500   -1.2990    0.0000 C   0  0  0  0  0  0  0  0  0  0  0  0
    3.7500   -3.8971    0.0000 C   0  0  0  0  0  0  0  0  0  0  0  0
    5.2500   -3.8971    0.0000 C   0  0  0  0  0  0  0  0  0  0  0  0
    9.7500   -3.8971    0.0000 C   0  0  0  0  0  0  0  0  0  0  0  0
   10.5000   -5.1962    0.0000 C   0  0  0  0  0  0  0  0  0  0  0  0
  1  2  1  0
  2  3  1  0
  3  4  2  0
  4  5  1  0
  5  6  2  0
  6  7  1  0
  7  8  1  0
  8  9  1  0
  9 10  1  0
 10 11  1  0
 11 12  1  0
 12 13  1  0
 13 14  2  0
 14 15  1  0
 15 16  1  0
 16 17  1  0
 17 18  2  0
 18 19  1  0
 19 20  2  0
 20 21  1  0
 21 22  1  0
 22 23  2  0
 22 24  1  0
 24 25  1  0
 25 26  1  0
 26 27  1  0
 27 28  1  0
 28 29  1  0
 29 30  1  0
 30 31  2  0
 30 32  1  0
 32 33  1  0
 20 34  1  0
 34 35  2  0
 15 36  2  0
 36 37  1  0
 37 38  2  0
 38 39  1  0
 39 40  1  0
 40 41  1  0
 39 42  2  0
 42 43  1  0
 43 44  1  0
 42 45  1  0
 45 46  2  0
 11 47  1  0
 47 48  1  0
  6 49  1  0
 49 50  2  0
 50  3  1  0
 48  8  1  0
 46 13  1  0
 35 17  1  0
 46 37  1  0
M  END
>  <molecule_chembl_id>  (421) 
CHEMBL4554522

>  <canonical_smiles>  (421) 
COc1ccc(CN2CCC(Nc3nc(Nc4ccc(NC(=O)CCCCCCC(=O)NO)cc4)nc4cc(OC)c(OC)cc34)CC2)cc1

>  <pchembl_value_mean>  (421) 
5.95

>  <document_chembl_id>  (421) 
CHEMBL4311997

$$$$

     RDKit          2D

107114  0  0  0  0  0  0  0  0999 V2000
    9.5260   -3.8971    0.0000 C   0  0  0  0  0  0  0  0  0  0  0  0
    8.0260   -3.8971    0.0000 N   0  0  0  0  0  0  0  0  0  0  0  0
    7.2760   -5.1962    0.0000 C   0  0  0  0  0  0  0  0  0  0  0  0
    7.2760   -2.5981    0.0000 C   0  0  0  0  0  0  0  0  0  0  0  0
    5.7760   -2.5981    0.0000 C   0  0  0  0  0  0  0  0  0  0  0  0
    5.0260   -1.2990    0.0000 C   0  0  0  0  0  0  0  0  0  0  0  0
    3.5260   -1.2990    0.0000 N   0  0  0  0  0  0  0  0  0  0  0  0
    2.7760    0.0000    0.0000 C   0  0  0  0  0  0  0  0  0  0  0  0
    3.5260    1.2990    0.0000 O   0  0  0  0  0  0  0  0  0  0  0  0
    1.2760    0.0000    0.0000 C   0  0  0  0  0  0  0  0  0  0  0  0
    0.3943    1.2135    0.0000 C   0  0  0  0  0  0  0  0  0  0  0  0
   -1.0323    0.7500    0.0000 C   0  0  0  0  0  0  0  0  0  0  0  0
   -2.2458    1.6317    0.0000 N   0  0  0  0  0  0  0  0  0  0  0  0
   -2.0890    3.1235    0.0000 C   0  0  0  0  0  0  0  0  0  0  0  0
   -0.7187    3.7336    0.0000 O   0  0  0  0  0  0  0  0  0  0  0  0
   -3.3025    4.0051    0.0000 C   0  0  0  0  0  0  0  0  0  0  0  0
   -4.7291    3.5416    0.0000 C   0  0  0  0  0  0  0  0  0  0  0  0
   -5.6108    4.7551    0.0000 C   0  0  0  0  0  0  0  0  0  0  0  0
   -7.1108    4.7551    0.0000 N   0  0  0  0  0  0  0  0  0  0  0  0
   -7.8608    6.0542    0.0000 C   0  0  0  0  0  0  0  0  0  0  0  0
   -7.1108    7.3532    0.0000 O   0  0  0  0  0  0  0  0  0  0  0  0
   -9.3608    6.0542    0.0000 C   0  0  0  0  0  0  0  0  0  0  0  0
  -10.2425    4.8407    0.0000 C   0  0  0  0  0  0  0  0  0  0  0  0
  -11.6691    5.3042    0.0000 C   0  0  0  0  0  0  0  0  0  0  0  0
  -12.8826    4.4225    0.0000 N   0  0  0  0  0  0  0  0  0  0  0  0
  -14.2529    5.0326    0.0000 C   0  0  0  0  0  0  0  0  0  0  0  0
  -14.4097    6.5244    0.0000 O   0  0  0  0  0  0  0  0  0  0  0  0
  -15.4664    4.1509    0.0000 C   0  0  0  0  0  0  0  0  0  0  0  0
  -15.4664    2.6509    0.0000 N   0  0  0  0  0  0  0  0  0  0  0  0
  -16.8930    2.1874    0.0000 C   0  0  0  0  0  0  0  0  0  0  0  0
  -17.3565    0.7608    0.0000 N   0  0  0  0  0  0  0  0  0  0  0  0
  -18.8238    0.4489    0.0000 C   0  0  0  0  0  0  0  0  0  0  0  0
  -19.8275    1.5637    0.0000 O   0  0  0  0  0  0  0  0  0  0  0  0
  -19.2873   -0.9776    0.0000 C   0  0  0  0  0  0  0  0  0  0  0  0
  -20.7545   -1.2895    0.0000 C   0  0  0  0  0  0  0  0  0  0  0  0
  -21.2180   -2.7161    0.0000 C   0  0  0  0  0  0  0  0  0  0  0  0
  -22.6853   -3.0280    0.0000 N   0  0  0  0  0  0  0  0  0  0  0  0
  -23.1488   -4.4545    0.0000 C   0  0  0  0  0  0  0  0  0  0  0  0
  -22.1451   -5.5693    0.0000 O   0  0  0  0  0  0  0  0  0  0  0  0
  -24.6160   -4.7664    0.0000 C   0  0  0  0  0  0  0  0  0  0  0  0
  -25.2261   -6.1367    0.0000 C   0  0  0  0  0  0  0  0  0  0  0  0
  -26.7179   -5.9799    0.0000 C   0  0  0  0  0  0  0  0  0  0  0  0
  -27.7216   -7.0947    0.0000 N   0  0  0  0  0  0  0  0  0  0  0  0
  -29.1888   -6.7828    0.0000 C   0  0  0  0  0  0  0  0  0  0  0  0
  -29.6523   -5.3562    0.0000 O   0  0  0  0  0  0  0  0  0  0  0  0
  -30.1925   -7.8975    0.0000 C   0  0  0  0  0  0  0  0  0  0  0  0
  -29.8806   -9.3647    0.0000 C   0  0  0  0  0  0  0  0  0  0  0  0
  -31.1797  -10.1147    0.0000 C   0  0  0  0  0  0  0  0  0  0  0  0
  -31.3365  -11.6065    0.0000 N   0  0  0  0  0  0  0  0  0  0  0  0
  -32.7068  -12.2166    0.0000 C   0  0  0  0  0  0  0  0  0  0  0  0
  -33.9203  -11.3349    0.0000 O   0  0  0  0  0  0  0  0  0  0  0  0
  -32.8636  -13.7084    0.0000 C   0  0  0  0  0  0  0  0  0  0  0  0
  -31.7489  -14.7121    0.0000 C   0  0  0  0  0  0  0  0  0  0  0  0
  -32.3590  -16.0824    0.0000 C   0  0  0  0  0  0  0  0  0  0  0  0
  -31.6090  -17.3814    0.0000 N   0  0  0  0  0  0  0  0  0  0  0  0
  -32.3590  -18.6805    0.0000 C   0  0  0  0  0  0  0  0  0  0  0  0
  -33.8590  -18.6805    0.0000 O   0  0  0  0  0  0  0  0  0  0  0  0
  -31.6090  -19.9795    0.0000 C   0  0  0  0  0  0  0  0  0  0  0  0
  -30.1172  -20.1363    0.0000 N   0  0  0  0  0  0  0  0  0  0  0  0
  -29.8053  -21.6035    0.0000 C   0  0  0  0  0  0  0  0  0  0  0  0
  -28.4350  -22.2136    0.0000 N   0  0  0  0  0  0  0  0  0  0  0  0
  -28.2782  -23.7054    0.0000 C   0  0  0  0  0  0  0  0  0  0  0  0
  -29.4917  -24.5871    0.0000 O   0  0  0  0  0  0  0  0  0  0  0  0
  -26.9079  -24.3155    0.0000 C   0  0  0  0  0  0  0  0  0  0  0  0
  -26.7511  -25.8073    0.0000 C   0  0  0  0  0  0  0  0  0  0  0  0
  -25.3808  -26.4174    0.0000 N   0  0  0  0  0  0  0  0  0  0  0  0
  -25.2240  -27.9092    0.0000 C   0  0  0  0  0  0  0  0  0  0  0  0
  -26.4375  -28.7909    0.0000 O   0  0  0  0  0  0  0  0  0  0  0  0
  -23.8537  -28.5193    0.0000 C   0  0  0  0  0  0  0  0  0  0  0  0
  -23.6969  -30.0111    0.0000 C   0  0  0  0  0  0  0  0  0  0  0  0
  -22.3266  -30.6212    0.0000 N   0  0  0  0  0  0  0  0  0  0  0  0
  -22.1698  -32.1130    0.0000 C   0  0  0  0  0  0  0  0  0  0  0  0
  -23.3833  -32.9947    0.0000 O   0  0  0  0  0  0  0  0  0  0  0  0
  -20.7995  -32.7231    0.0000 C   0  0  0  0  0  0  0  0  0  0  0  0
  -20.6427  -34.2149    0.0000 C   0  0  0  0  0  0  0  0  0  0  0  0
  -19.2723  -34.8250    0.0000 C   0  0  0  0  0  0  0  0  0  0  0  0
  -19.1155  -36.3168    0.0000 C   0  0  0  0  0  0  0  0  0  0  0  0
  -17.7452  -36.9269    0.0000 C   0  0  0  0  0  0  0  0  0  0  0  0
  -17.5884  -38.4186    0.0000 C   0  0  0  0  0  0  0  0  0  0  0  0
  -16.2181  -39.0287    0.0000 C   0  0  0  0  0  0  0  0  0  0  0  0
  -15.0046  -38.1471    0.0000 O   0  0  0  0  0  0  0  0  0  0  0  0
  -16.0613  -40.5205    0.0000 N   0  0  0  0  0  0  0  0  0  0  0  0
  -14.6910  -41.1306    0.0000 O   0  0  0  0  0  0  0  0  0  0  0  0
  -31.1044  -22.3535    0.0000 C   0  0  0  0  0  0  0  0  0  0  0  0
  -32.2191  -21.3498    0.0000 N   0  0  0  0  0  0  0  0  0  0  0  0
  -33.6863  -21.6617    0.0000 C   0  0  0  0  0  0  0  0  0  0  0  0
  -33.8508  -15.9256    0.0000 C   0  0  0  0  0  0  0  0  0  0  0  0
  -34.1626  -14.4584    0.0000 N   0  0  0  0  0  0  0  0  0  0  0  0
  -35.5329  -13.8483    0.0000 C   0  0  0  0  0  0  0  0  0  0  0  0
  -32.2944   -9.1110    0.0000 C   0  0  0  0  0  0  0  0  0  0  0  0
  -31.6843   -7.7407    0.0000 N   0  0  0  0  0  0  0  0  0  0  0  0
  -32.4343   -6.4417    0.0000 C   0  0  0  0  0  0  0  0  0  0  0  0
  -27.0298   -4.5127    0.0000 C   0  0  0  0  0  0  0  0  0  0  0  0
  -25.7307   -3.7627    0.0000 N   0  0  0  0  0  0  0  0  0  0  0  0
  -25.5739   -2.2709    0.0000 C   0  0  0  0  0  0  0  0  0  0  0  0
  -17.7747    3.4009    0.0000 C   0  0  0  0  0  0  0  0  0  0  0  0
  -16.8930    4.6145    0.0000 N   0  0  0  0  0  0  0  0  0  0  0  0
  -17.3565    6.0410    0.0000 C   0  0  0  0  0  0  0  0  0  0  0  0
  -11.6691    6.8042    0.0000 C   0  0  0  0  0  0  0  0  0  0  0  0
  -10.2425    7.2677    0.0000 N   0  0  0  0  0  0  0  0  0  0  0  0
   -9.7790    8.6943    0.0000 C   0  0  0  0  0  0  0  0  0  0  0  0
   -4.7291    5.9687    0.0000 C   0  0  0  0  0  0  0  0  0  0  0  0
   -3.3025    5.5051    0.0000 N   0  0  0  0  0  0  0  0  0  0  0  0
   -2.0890    6.3868    0.0000 C   0  0  0  0  0  0  0  0  0  0  0  0
   -1.0323   -0.7500    0.0000 C   0  0  0  0  0  0  0  0  0  0  0  0
    0.3943   -1.2135    0.0000 N   0  0  0  0  0  0  0  0  0  0  0  0
    0.8578   -2.6401    0.0000 C   0  0  0  0  0  0  0  0  0  0  0  0
  1  2  1  0
  2  3  1  0
  2  4  1  0
  4  5  1  0
  5  6  1  0
  6  7  1  0
  7  8  1  0
  8  9  2  0
  8 10  1  0
 10 11  2  0
 11 12  1  0
 12 13  1  0
 13 14  1  0
 14 15  2  0
 14 16  1  0
 16 17  2  0
 17 18  1  0
 18 19  1  0
 19 20  1  0
 20 21  2  0
 20 22  1  0
 22 23  2  0
 23 24  1  0
 24 25  1  0
 25 26  1  0
 26 27  2  0
 26 28  1  0
 28 29  2  0
 29 30  1  0
 30 31  1  0
 31 32  1  0
 32 33  2  0
 32 34  1  0
 34 35  1  0
 35 36  1  0
 36 37  1  0
 37 38  1  0
 38 39  2  0
 38 40  1  0
 40 41  2  0
 41 42  1  0
 42 43  1  0
 43 44  1  0
 44 45  2  0
 44 46  1  0
 46 47  2  0
 47 48  1  0
 48 49  1  0
 49 50  1  0
 50 51  2  0
 50 52  1  0
 52 53  2  0
 53 54  1  0
 54 55  1  0
 55 56  1  0
 56 57  2  0
 56 58  1  0
 58 59  2  0
 59 60  1  0
 60 61  1  0
 61 62  1  0
 62 63  2  0
 62 64  1  0
 64 65  1  0
 65 66  1  0
 66 67  1  0
 67 68  2  0
 67 69  1  0
 69 70  1  0
 70 71  1  0
 71 72  1  0
 72 73  2  0
 72 74  1  0
 74 75  1  0
 75 76  1  0
 76 77  1  0
 77 78  1  0
 78 79  1  0
 79 80  1  0
 80 81  2  0
 80 82  1  0
 82 83  1  0
 60 84  2  0
 84 85  1  0
 85 86  1  0
 54 87  2  0
 87 88  1  0
 88 89  1  0
 48 90  2  0
 90 91  1  0
 91 92  1  0
 42 93  2  0
 93 94  1  0
 94 95  1  0
 30 96  2  0
 96 97  1  0
 97 98  1  0
 24 99  2  0
 99100  1  0
100101  1  0
 18102  2  0
102103  1  0
103104  1  0
 12105  2  0
105106  1  0
106107  1  0
106 10  1  0
103 16  1  0
100 22  1  0
 97 28  1  0
 94 40  1  0
 91 46  1  0
 88 52  1  0
 85 58  1  0
M  END
>  <molecule_chembl_id>  (422) 
CHEMBL2396902

>  <canonical_smiles>  (422) 
CN(C)CCCNC(=O)c1cc(NC(=O)c2cc(NC(=O)c3cc(NC(=O)c4nc(NC(=O)CCCNC(=O)c5cc(NC(=O)c6cc(NC(=O)c7cc(NC(=O)c8nc(NC(=O)CCNC(=O)CCNC(=O)CCCCCCC(=O)NO)cn8C)cn7C)cn6C)cn5C)cn4C)cn3C)cn2C)cn1C

>  <pchembl_value_mean>  (422) 
5.95

>  <document_chembl_id>  (422) 
CHEMBL2396564

$$$$

     RDKit          2D

 20 21  0  0  0  0  0  0  0  0999 V2000
    5.2500   -1.2990    0.0000 C   0  0  0  0  0  0  0  0  0  0  0  0
    3.7500   -1.2990    0.0000 C   0  0  0  0  0  0  0  0  0  0  0  0
    3.0000   -2.5981    0.0000 O   0  0  0  0  0  0  0  0  0  0  0  0
    3.0000    0.0000    0.0000 N   0  0  0  0  0  0  0  0  0  0  0  0
    1.5000    0.0000    0.0000 C   0  0  0  0  0  0  0  0  0  0  0  0
    0.7500   -1.2990    0.0000 C   0  0  0  0  0  0  0  0  0  0  0  0
   -0.7500   -1.2990    0.0000 C   0  0  0  0  0  0  0  0  0  0  0  0
   -1.5000    0.0000    0.0000 C   0  0  0  0  0  0  0  0  0  0  0  0
   -3.0000    0.0000    0.0000 C   0  0  0  0  0  0  0  0  0  0  0  0
   -3.7500   -1.2990    0.0000 O   0  0  0  0  0  0  0  0  0  0  0  0
   -3.7500    1.2990    0.0000 N   0  0  0  0  0  0  0  0  0  0  0  0
   -5.2500    1.2990    0.0000 C   0  0  0  0  0  0  0  0  0  0  0  0
   -6.0000    2.5981    0.0000 C   0  0  0  0  0  0  0  0  0  0  0  0
   -7.5000    2.5981    0.0000 C   0  0  0  0  0  0  0  0  0  0  0  0
   -8.2500    1.2990    0.0000 C   0  0  0  0  0  0  0  0  0  0  0  0
   -7.5000    0.0000    0.0000 C   0  0  0  0  0  0  0  0  0  0  0  0
   -6.0000    0.0000    0.0000 C   0  0  0  0  0  0  0  0  0  0  0  0
   -5.2500   -1.2990    0.0000 N   0  0  0  0  0  0  0  0  0  0  0  0
   -0.7500    1.2990    0.0000 C   0  0  0  0  0  0  0  0  0  0  0  0
    0.7500    1.2990    0.0000 C   0  0  0  0  0  0  0  0  0  0  0  0
  1  2  1  0
  2  3  2  0
  2  4  1  0
  4  5  1  0
  5  6  2  0
  6  7  1  0
  7  8  2  0
  8  9  1  0
  9 10  2  0
  9 11  1  0
 11 12  1  0
 12 13  2  0
 13 14  1  0
 14 15  2  0
 15 16  1  0
 16 17  2  0
 17 18  1  0
  8 19  1  0
 19 20  2  0
 20  5  1  0
 17 12  1  0
M  END
>  <molecule_chembl_id>  (423) 
CHEMBL235191

>  <canonical_smiles>  (423) 
CC(=O)Nc1ccc(C(=O)Nc2ccccc2N)cc1

>  <pchembl_value_mean>  (423) 
5.9575

>  <document_chembl_id>  (423) 
CHEMBL1138236

$$$$

     RDKit          2D

 28 30  0  0  0  0  0  0  0  0999 V2000
    3.0000    0.0000    0.0000 N   0  0  0  0  0  0  0  0  0  0  0  0
    1.5000    0.0000    0.0000 C   0  0  0  0  0  0  0  0  0  0  0  0
    0.7500   -1.2990    0.0000 C   0  0  0  0  0  0  0  0  0  0  0  0
   -0.7500   -1.2990    0.0000 C   0  0  0  0  0  0  0  0  0  0  0  0
   -1.5000   -2.5981    0.0000 F   0  0  0  0  0  0  0  0  0  0  0  0
   -1.5000    0.0000    0.0000 C   0  0  0  0  0  0  0  0  0  0  0  0
   -0.7500    1.2990    0.0000 C   0  0  0  0  0  0  0  0  0  0  0  0
    0.7500    1.2990    0.0000 C   0  0  0  0  0  0  0  0  0  0  0  0
    1.5000    2.5981    0.0000 N   0  0  0  0  0  0  0  0  0  0  0  0
    0.7500    3.8971    0.0000 C   0  0  0  0  0  0  0  0  0  0  0  0
   -0.7500    3.8971    0.0000 O   0  0  0  0  0  0  0  0  0  0  0  0
    1.5000    5.1962    0.0000 C   0  0  0  0  0  0  0  0  0  0  0  0
    3.0000    5.1962    0.0000 C   0  0  0  0  0  0  0  0  0  0  0  0
    3.7500    6.4952    0.0000 C   0  0  0  0  0  0  0  0  0  0  0  0
    3.0000    7.7942    0.0000 C   0  0  0  0  0  0  0  0  0  0  0  0
    3.7500    9.0933    0.0000 N   0  0  0  0  0  0  0  0  0  0  0  0
    5.2500    9.0933    0.0000 C   0  0  0  0  0  0  0  0  0  0  0  0
    6.0000    7.7942    0.0000 O   0  0  0  0  0  0  0  0  0  0  0  0
    6.0000   10.3923    0.0000 C   0  0  0  0  0  0  0  0  0  0  0  0
    7.5000   10.3923    0.0000 C   0  0  0  0  0  0  0  0  0  0  0  0
    8.2500   11.6913    0.0000 C   0  0  0  0  0  0  0  0  0  0  0  0
    9.7500   11.6913    0.0000 C   0  0  0  0  0  0  0  0  0  0  0  0
   10.5000   12.9904    0.0000 C   0  0  0  0  0  0  0  0  0  0  0  0
    9.7500   14.2894    0.0000 C   0  0  0  0  0  0  0  0  0  0  0  0
    8.2500   14.2894    0.0000 C   0  0  0  0  0  0  0  0  0  0  0  0
    7.5000   12.9904    0.0000 C   0  0  0  0  0  0  0  0  0  0  0  0
    1.5000    7.7942    0.0000 C   0  0  0  0  0  0  0  0  0  0  0  0
    0.7500    6.4952    0.0000 C   0  0  0  0  0  0  0  0  0  0  0  0
  1  2  1  0
  2  3  2  0
  3  4  1  0
  4  5  1  0
  4  6  2  0
  6  7  1  0
  7  8  2  0
  8  9  1  0
  9 10  1  0
 10 11  2  0
 10 12  1  0
 12 13  2  0
 13 14  1  0
 14 15  2  0
 15 16  1  0
 16 17  1  0
 17 18  2  0
 17 19  1  0
 19 20  1  0
 20 21  1  0
 21 22  2  0
 22 23  1  0
 23 24  2  0
 24 25  1  0
 25 26  2  0
 15 27  1  0
 27 28  2  0
  8  2  1  0
 28 12  1  0
 26 21  1  0
M  END
>  <molecule_chembl_id>  (424) 
CHEMBL4173137

>  <canonical_smiles>  (424) 
Nc1cc(F)ccc1NC(=O)c1ccc(NC(=O)CCc2ccccc2)cc1

>  <pchembl_value_mean>  (424) 
5.96

>  <document_chembl_id>  (424) 
CHEMBL4130443

$$$$

     RDKit          2D

 37 39  0  0  0  0  0  0  0  0999 V2000
    7.2990   -1.8481    0.0000 C   0  0  0  0  0  0  0  0  0  0  0  0
    6.0000   -2.5981    0.0000 C   0  0  0  0  0  0  0  0  0  0  0  0
    4.7010   -3.3481    0.0000 C   0  0  0  0  0  0  0  0  0  0  0  0
    6.7500   -3.8971    0.0000 C   0  0  0  0  0  0  0  0  0  0  0  0
    5.2500   -1.2990    0.0000 O   0  0  0  0  0  0  0  0  0  0  0  0
    3.7500   -1.2990    0.0000 C   0  0  0  0  0  0  0  0  0  0  0  0
    3.0000   -2.5981    0.0000 O   0  0  0  0  0  0  0  0  0  0  0  0
    3.0000    0.0000    0.0000 N   0  0  0  0  0  0  0  0  0  0  0  0
    1.5000    0.0000    0.0000 C   0  0  0  0  0  0  0  0  0  0  0  0
    0.7500   -1.2990    0.0000 C   0  0  0  0  0  0  0  0  0  0  0  0
   -0.7500   -1.2990    0.0000 C   0  0  0  0  0  0  0  0  0  0  0  0
   -1.5000    0.0000    0.0000 C   0  0  0  0  0  0  0  0  0  0  0  0
   -0.7500    1.2990    0.0000 C   0  0  0  0  0  0  0  0  0  0  0  0
   -1.5000    2.5981    0.0000 C   0  0  0  0  0  0  0  0  0  0  0  0
   -2.9918    2.7549    0.0000 C   0  0  0  0  0  0  0  0  0  0  0  0
   -3.3037    4.2221    0.0000 S   0  0  0  0  0  0  0  0  0  0  0  0
   -2.0046    4.9721    0.0000 C   0  0  0  0  0  0  0  0  0  0  0  0
   -1.8478    6.4639    0.0000 N   0  0  0  0  0  0  0  0  0  0  0  0
   -0.4775    7.0740    0.0000 C   0  0  0  0  0  0  0  0  0  0  0  0
    0.7360    6.1923    0.0000 O   0  0  0  0  0  0  0  0  0  0  0  0
   -0.3207    8.5658    0.0000 C   0  0  0  0  0  0  0  0  0  0  0  0
    1.0496    9.1759    0.0000 C   0  0  0  0  0  0  0  0  0  0  0  0
    1.2064   10.6676    0.0000 C   0  0  0  0  0  0  0  0  0  0  0  0
    2.5767   11.2778    0.0000 C   0  0  0  0  0  0  0  0  0  0  0  0
    2.7335   12.7695    0.0000 C   0  0  0  0  0  0  0  0  0  0  0  0
    4.1038   13.3796    0.0000 C   0  0  0  0  0  0  0  0  0  0  0  0
    5.3174   12.4980    0.0000 O   0  0  0  0  0  0  0  0  0  0  0  0
    4.2606   14.8714    0.0000 N   0  0  0  0  0  0  0  0  0  0  0  0
    5.6309   15.4815    0.0000 C   0  0  0  0  0  0  0  0  0  0  0  0
    6.8445   14.5999    0.0000 C   0  0  0  0  0  0  0  0  0  0  0  0
    8.2148   15.2100    0.0000 C   0  0  0  0  0  0  0  0  0  0  0  0
    8.3716   16.7017    0.0000 C   0  0  0  0  0  0  0  0  0  0  0  0
    7.1581   17.5834    0.0000 C   0  0  0  0  0  0  0  0  0  0  0  0
    5.7877   16.9733    0.0000 C   0  0  0  0  0  0  0  0  0  0  0  0
    4.5742   17.8550    0.0000 N   0  0  0  0  0  0  0  0  0  0  0  0
   -0.8899    3.9684    0.0000 N   0  0  0  0  0  0  0  0  0  0  0  0
    0.7500    1.2990    0.0000 C   0  0  0  0  0  0  0  0  0  0  0  0
  1  2  1  0
  2  3  1  0
  2  4  1  0
  2  5  1  0
  5  6  1  0
  6  7  2  0
  6  8  1  0
  8  9  1  0
  9 10  2  0
 10 11  1  0
 11 12  2  0
 12 13  1  0
 13 14  1  0
 14 15  2  0
 15 16  1  0
 16 17  1  0
 17 18  1  0
 18 19  1  0
 19 20  2  0
 19 21  1  0
 21 22  1  0
 22 23  1  0
 23 24  1  0
 24 25  1  0
 25 26  1  0
 26 27  2  0
 26 28  1  0
 28 29  1  0
 29 30  2  0
 30 31  1  0
 31 32  2  0
 32 33  1  0
 33 34  2  0
 34 35  1  0
 17 36  2  0
 13 37  2  0
 37  9  1  0
 36 14  1  0
 34 29  1  0
M  END
>  <molecule_chembl_id>  (425) 
CHEMBL4545091

>  <canonical_smiles>  (425) 
CC(C)(C)OC(=O)Nc1cccc(-c2csc(NC(=O)CCCCCC(=O)Nc3ccccc3N)n2)c1

>  <pchembl_value_mean>  (425) 
5.96

>  <document_chembl_id>  (425) 
CHEMBL4400533

$$$$

     RDKit          2D

 32 35  0  0  0  0  0  0  0  0999 V2000
    4.6740   -4.8322    0.0000 C   0  0  0  0  0  0  0  0  0  0  0  0
    3.3037   -4.2221    0.0000 N   0  0  0  0  0  0  0  0  0  0  0  0
    2.9918   -2.7549    0.0000 C   0  0  0  0  0  0  0  0  0  0  0  0
    1.5000   -2.5981    0.0000 C   0  0  0  0  0  0  0  0  0  0  0  0
    0.7500   -1.2990    0.0000 C   0  0  0  0  0  0  0  0  0  0  0  0
    1.5000    0.0000    0.0000 C   0  0  0  0  0  0  0  0  0  0  0  0
    0.7500    1.2990    0.0000 C   0  0  0  0  0  0  0  0  0  0  0  0
   -0.7500    1.2990    0.0000 C   0  0  0  0  0  0  0  0  0  0  0  0
   -1.5000    2.5981    0.0000 S   0  0  0  0  0  0  0  0  0  0  0  0
   -0.2010    3.3481    0.0000 O   0  0  0  0  0  0  0  0  0  0  0  0
   -2.7990    1.8481    0.0000 O   0  0  0  0  0  0  0  0  0  0  0  0
   -2.2500    3.8971    0.0000 N   0  0  0  0  0  0  0  0  0  0  0  0
   -3.7418    4.0539    0.0000 C   0  0  0  0  0  0  0  0  0  0  0  0
   -4.0537    5.5211    0.0000 C   0  0  0  0  0  0  0  0  0  0  0  0
   -2.7546    6.2711    0.0000 C   0  0  0  0  0  0  0  0  0  0  0  0
   -2.5978    7.7629    0.0000 C   0  0  0  0  0  0  0  0  0  0  0  0
   -1.2275    8.3730    0.0000 C   0  0  0  0  0  0  0  0  0  0  0  0
   -1.0707    9.8648    0.0000 C   0  0  0  0  0  0  0  0  0  0  0  0
   -2.2842   10.7465    0.0000 O   0  0  0  0  0  0  0  0  0  0  0  0
    0.2996   10.4749    0.0000 N   0  0  0  0  0  0  0  0  0  0  0  0
    0.4564   11.9667    0.0000 C   0  0  0  0  0  0  0  0  0  0  0  0
    1.8267   12.5768    0.0000 C   0  0  0  0  0  0  0  0  0  0  0  0
    1.9835   14.0686    0.0000 C   0  0  0  0  0  0  0  0  0  0  0  0
    0.7700   14.9503    0.0000 C   0  0  0  0  0  0  0  0  0  0  0  0
   -0.6003   14.3401    0.0000 C   0  0  0  0  0  0  0  0  0  0  0  0
   -0.7571   12.8484    0.0000 C   0  0  0  0  0  0  0  0  0  0  0  0
   -2.1274   12.2383    0.0000 N   0  0  0  0  0  0  0  0  0  0  0  0
   -1.6399    5.2674    0.0000 C   0  0  0  0  0  0  0  0  0  0  0  0
   -1.5000    0.0000    0.0000 C   0  0  0  0  0  0  0  0  0  0  0  0
   -0.7500   -1.2990    0.0000 C   0  0  0  0  0  0  0  0  0  0  0  0
    0.8899   -3.9684    0.0000 C   0  0  0  0  0  0  0  0  0  0  0  0
    2.0046   -4.9721    0.0000 N   0  0  0  0  0  0  0  0  0  0  0  0
  1  2  1  0
  2  3  1  0
  3  4  2  0
  4  5  1  0
  5  6  2  0
  6  7  1  0
  7  8  2  0
  8  9  1  0
  9 10  2  0
  9 11  2  0
  9 12  1  0
 12 13  1  0
 13 14  2  0
 14 15  1  0
 15 16  1  0
 16 17  2  3
 17 18  1  0
 18 19  2  0
 18 20  1  0
 20 21  1  0
 21 22  2  0
 22 23  1  0
 23 24  2  0
 24 25  1  0
 25 26  2  0
 26 27  1  0
 15 28  2  0
  8 29  1  0
 29 30  2  0
  4 31  1  0
 31 32  2  0
 32  2  1  0
 30  5  1  0
 28 12  1  0
 26 21  1  0
M  END
>  <molecule_chembl_id>  (426) 
CHEMBL4283683

>  <canonical_smiles>  (426) 
Cn1cc(-c2ccc(S(=O)(=O)n3ccc(C=CC(=O)Nc4ccccc4N)c3)cc2)cn1

>  <pchembl_value_mean>  (426) 
5.96

>  <document_chembl_id>  (426) 
CHEMBL4765362

$$$$

     RDKit          2D

 35 38  0  0  0  0  0  0  0  0999 V2000
   -4.3786   -5.1199    0.0000 C   0  0  0  0  0  0  0  0  0  0  0  0
   -2.9520   -4.6564    0.0000 C   0  0  0  0  0  0  0  0  0  0  0  0
   -2.6401   -3.1891    0.0000 C   0  0  0  0  0  0  0  0  0  0  0  0
   -1.2135   -2.7256    0.0000 C   0  0  0  0  0  0  0  0  0  0  0  0
   -0.0000   -3.6073    0.0000 N   0  0  0  0  0  0  0  0  0  0  0  0
    1.2135   -2.7256    0.0000 N   0  0  0  0  0  0  0  0  0  0  0  0
    2.6401   -3.1891    0.0000 C   0  0  0  0  0  0  0  0  0  0  0  0
    0.7500   -1.2990    0.0000 C   0  0  0  0  0  0  0  0  0  0  0  0
    1.5000    0.0000    0.0000 C   0  0  0  0  0  0  0  0  0  0  0  0
    3.0000    0.0000    0.0000 O   0  0  0  0  0  0  0  0  0  0  0  0
    0.7500    1.2990    0.0000 N   0  0  0  0  0  0  0  0  0  0  0  0
   -0.7500    1.2990    0.0000 C   0  0  0  0  0  0  0  0  0  0  0  0
   -1.5000    2.5981    0.0000 C   0  0  0  0  0  0  0  0  0  0  0  0
   -0.7500    3.8971    0.0000 C   0  0  0  0  0  0  0  0  0  0  0  0
   -1.5000    5.1962    0.0000 C   0  0  0  0  0  0  0  0  0  0  0  0
   -0.7500    6.4952    0.0000 C   0  0  0  0  0  0  0  0  0  0  0  0
   -1.5000    7.7942    0.0000 O   0  0  0  0  0  0  0  0  0  0  0  0
    0.7500    6.4952    0.0000 C   0  0  0  0  0  0  0  0  0  0  0  0
    1.5000    5.1962    0.0000 C   0  0  0  0  0  0  0  0  0  0  0  0
    3.0000    5.1962    0.0000 C   0  0  0  0  0  0  0  0  0  0  0  0
    3.7500    6.4952    0.0000 C   0  0  0  0  0  0  0  0  0  0  0  0
    5.2500    6.4952    0.0000 C   0  0  0  0  0  0  0  0  0  0  0  0
    6.0000    7.7942    0.0000 O   0  0  0  0  0  0  0  0  0  0  0  0
    6.0000    5.1962    0.0000 N   0  0  0  0  0  0  0  0  0  0  0  0
    7.5000    5.1962    0.0000 O   0  0  0  0  0  0  0  0  0  0  0  0
    3.0000    7.7942    0.0000 C   0  0  0  0  0  0  0  0  0  0  0  0
    1.5000    7.7942    0.0000 C   0  0  0  0  0  0  0  0  0  0  0  0
   -3.0000    5.1962    0.0000 C   0  0  0  0  0  0  0  0  0  0  0  0
   -3.7500    3.8971    0.0000 C   0  0  0  0  0  0  0  0  0  0  0  0
   -3.0000    2.5981    0.0000 C   0  0  0  0  0  0  0  0  0  0  0  0
   -3.7500    1.2990    0.0000 O   0  0  0  0  0  0  0  0  0  0  0  0
   -5.2500    1.2990    0.0000 C   0  0  0  0  0  0  0  0  0  0  0  0
   -6.0000    0.0000    0.0000 C   0  0  0  0  0  0  0  0  0  0  0  0
   -1.5000    0.0000    0.0000 N   0  0  0  0  0  0  0  0  0  0  0  0
   -0.7500   -1.2990    0.0000 C   0  0  0  0  0  0  0  0  0  0  0  0
  1  2  1  0
  2  3  1  0
  3  4  1  0
  4  5  2  0
  5  6  1  0
  6  7  1  0
  6  8  1  0
  8  9  1  0
  9 10  2  0
  9 11  1  0
 11 12  1  0
 12 13  1  0
 13 14  2  0
 14 15  1  0
 15 16  1  0
 16 17  1  0
 16 18  1  0
 18 19  2  0
 19 20  1  0
 20 21  2  0
 21 22  1  0
 22 23  2  0
 22 24  1  0
 24 25  1  0
 21 26  1  0
 26 27  2  0
 15 28  2  0
 28 29  1  0
 29 30  2  0
 30 31  1  0
 31 32  1  0
 32 33  1  0
 12 34  2  0
 34 35  1  0
 35  4  1  0
 35  8  2  0
 30 13  1  0
 27 18  1  0
M  END
>  <molecule_chembl_id>  (427) 
CHEMBL4212445

>  <canonical_smiles>  (427) 
CCCc1nn(C)c2c(=O)[nH]c(-c3cc(C(O)c4ccc(C(=O)NO)cc4)ccc3OCC)nc12

>  <pchembl_value_mean>  (427) 
5.96

>  <document_chembl_id>  (427) 
CHEMBL4196089

$$$$

     RDKit          2D

 21 22  0  0  0  0  0  0  0  0999 V2000
    2.0490   -4.6471    0.0000 C   0  0  0  0  0  0  0  0  0  0  0  0
    0.7500   -3.8971    0.0000 C   0  0  0  0  0  0  0  0  0  0  0  0
   -0.5490   -3.1471    0.0000 C   0  0  0  0  0  0  0  0  0  0  0  0
    1.5000   -2.5981    0.0000 N   0  0  0  0  0  0  0  0  0  0  0  0
    0.7500   -1.2990    0.0000 C   0  0  0  0  0  0  0  0  0  0  0  0
    1.5000    0.0000    0.0000 N   0  0  0  0  0  0  0  0  0  0  0  0
    0.7500    1.2990    0.0000 C   0  0  0  0  0  0  0  0  0  0  0  0
   -0.7500    1.2990    0.0000 C   0  0  0  0  0  0  0  0  0  0  0  0
   -1.5000    2.5981    0.0000 C   0  0  0  0  0  0  0  0  0  0  0  0
   -3.0000    2.5981    0.0000 O   0  0  0  0  0  0  0  0  0  0  0  0
   -0.7500    3.8971    0.0000 N   0  0  0  0  0  0  0  0  0  0  0  0
   -1.5000    5.1962    0.0000 O   0  0  0  0  0  0  0  0  0  0  0  0
   -1.5000    0.0000    0.0000 C   0  0  0  0  0  0  0  0  0  0  0  0
   -0.7500   -1.2990    0.0000 N   0  0  0  0  0  0  0  0  0  0  0  0
   -0.0000   -5.1962    0.0000 C   0  0  0  0  0  0  0  0  0  0  0  0
   -1.5000   -5.1962    0.0000 C   0  0  0  0  0  0  0  0  0  0  0  0
   -2.2500   -6.4952    0.0000 C   0  0  0  0  0  0  0  0  0  0  0  0
   -1.5000   -7.7942    0.0000 C   0  0  0  0  0  0  0  0  0  0  0  0
   -2.2500   -9.0933    0.0000 F   0  0  0  0  0  0  0  0  0  0  0  0
   -0.0000   -7.7942    0.0000 C   0  0  0  0  0  0  0  0  0  0  0  0
    0.7500   -6.4952    0.0000 C   0  0  0  0  0  0  0  0  0  0  0  0
  1  2  1  0
  2  3  1  0
  2  4  1  0
  4  5  1  0
  5  6  2  0
  6  7  1  0
  7  8  2  0
  8  9  1  0
  9 10  2  0
  9 11  1  0
 11 12  1  0
  8 13  1  0
 13 14  2  0
  2 15  1  0
 15 16  2  0
 16 17  1  0
 17 18  2  0
 18 19  1  0
 18 20  1  0
 20 21  2  0
 14  5  1  0
 21 15  1  0
M  END
>  <molecule_chembl_id>  (428) 
CHEMBL3639548

>  <canonical_smiles>  (428) 
CC(C)(Nc1ncc(C(=O)NO)cn1)c1ccc(F)cc1

>  <pchembl_value_mean>  (428) 
5.96

>  <document_chembl_id>  (428) 
CHEMBL3639071

$$$$

     RDKit          2D

 36 39  0  0  0  0  0  0  0  0999 V2000
   -4.3786   -5.1199    0.0000 C   0  0  0  0  0  0  0  0  0  0  0  0
   -2.9520   -4.6564    0.0000 C   0  0  0  0  0  0  0  0  0  0  0  0
   -2.6401   -3.1891    0.0000 C   0  0  0  0  0  0  0  0  0  0  0  0
   -1.2135   -2.7256    0.0000 C   0  0  0  0  0  0  0  0  0  0  0  0
   -0.0000   -3.6073    0.0000 N   0  0  0  0  0  0  0  0  0  0  0  0
    1.2135   -2.7256    0.0000 N   0  0  0  0  0  0  0  0  0  0  0  0
    2.6401   -3.1891    0.0000 C   0  0  0  0  0  0  0  0  0  0  0  0
    0.7500   -1.2990    0.0000 C   0  0  0  0  0  0  0  0  0  0  0  0
    1.5000    0.0000    0.0000 C   0  0  0  0  0  0  0  0  0  0  0  0
    3.0000    0.0000    0.0000 O   0  0  0  0  0  0  0  0  0  0  0  0
    0.7500    1.2990    0.0000 N   0  0  0  0  0  0  0  0  0  0  0  0
   -0.7500    1.2990    0.0000 C   0  0  0  0  0  0  0  0  0  0  0  0
   -1.5000    2.5981    0.0000 C   0  0  0  0  0  0  0  0  0  0  0  0
   -0.7500    3.8971    0.0000 C   0  0  0  0  0  0  0  0  0  0  0  0
   -1.5000    5.1962    0.0000 C   0  0  0  0  0  0  0  0  0  0  0  0
   -0.7500    6.4952    0.0000 C   0  0  0  0  0  0  0  0  0  0  0  0
   -1.5000    7.7942    0.0000 O   0  0  0  0  0  0  0  0  0  0  0  0
   -0.7500    9.0933    0.0000 C   0  0  0  0  0  0  0  0  0  0  0  0
    0.7500    6.4952    0.0000 C   0  0  0  0  0  0  0  0  0  0  0  0
    1.5000    5.1962    0.0000 C   0  0  0  0  0  0  0  0  0  0  0  0
    3.0000    5.1962    0.0000 C   0  0  0  0  0  0  0  0  0  0  0  0
    3.7500    6.4952    0.0000 C   0  0  0  0  0  0  0  0  0  0  0  0
    5.2500    6.4952    0.0000 C   0  0  0  0  0  0  0  0  0  0  0  0
    6.0000    7.7942    0.0000 O   0  0  0  0  0  0  0  0  0  0  0  0
    6.0000    5.1962    0.0000 N   0  0  0  0  0  0  0  0  0  0  0  0
    7.5000    5.1962    0.0000 O   0  0  0  0  0  0  0  0  0  0  0  0
    3.0000    7.7942    0.0000 C   0  0  0  0  0  0  0  0  0  0  0  0
    1.5000    7.7942    0.0000 C   0  0  0  0  0  0  0  0  0  0  0  0
   -3.0000    5.1962    0.0000 C   0  0  0  0  0  0  0  0  0  0  0  0
   -3.7500    3.8971    0.0000 C   0  0  0  0  0  0  0  0  0  0  0  0
   -3.0000    2.5981    0.0000 C   0  0  0  0  0  0  0  0  0  0  0  0
   -3.7500    1.2990    0.0000 O   0  0  0  0  0  0  0  0  0  0  0  0
   -5.2500    1.2990    0.0000 C   0  0  0  0  0  0  0  0  0  0  0  0
   -6.0000    0.0000    0.0000 C   0  0  0  0  0  0  0  0  0  0  0  0
   -1.5000    0.0000    0.0000 N   0  0  0  0  0  0  0  0  0  0  0  0
   -0.7500   -1.2990    0.0000 C   0  0  0  0  0  0  0  0  0  0  0  0
  1  2  1  0
  2  3  1  0
  3  4  1  0
  4  5  2  0
  5  6  1  0
  6  7  1  0
  6  8  1  0
  8  9  1  0
  9 10  2  0
  9 11  1  0
 11 12  1  0
 12 13  1  0
 13 14  2  0
 14 15  1  0
 15 16  1  0
 16 17  1  0
 17 18  1  0
 16 19  1  0
 19 20  2  0
 20 21  1  0
 21 22  2  0
 22 23  1  0
 23 24  2  0
 23 25  1  0
 25 26  1  0
 22 27  1  0
 27 28  2  0
 15 29  2  0
 29 30  1  0
 30 31  2  0
 31 32  1  0
 32 33  1  0
 33 34  1  0
 12 35  2  0
 35 36  1  0
 36  4  1  0
 36  8  2  0
 31 13  1  0
 28 19  1  0
M  END
>  <molecule_chembl_id>  (429) 
CHEMBL4207538

>  <canonical_smiles>  (429) 
CCCc1nn(C)c2c(=O)[nH]c(-c3cc(C(OC)c4ccc(C(=O)NO)cc4)ccc3OCC)nc12

>  <pchembl_value_mean>  (429) 
5.96

>  <document_chembl_id>  (429) 
CHEMBL4196089

$$$$

     RDKit          2D

 27 30  0  0  0  0  0  0  0  0999 V2000
    3.7500   -3.8971    0.0000 N   0  0  0  0  0  0  0  0  0  0  0  0
    3.0000   -5.1962    0.0000 C   0  0  0  0  0  0  0  0  0  0  0  0
    3.7500   -6.4952    0.0000 C   0  0  0  0  0  0  0  0  0  0  0  0
    3.0000   -7.7942    0.0000 C   0  0  0  0  0  0  0  0  0  0  0  0
    1.5000   -7.7942    0.0000 C   0  0  0  0  0  0  0  0  0  0  0  0
    0.7500   -9.0933    0.0000 F   0  0  0  0  0  0  0  0  0  0  0  0
    0.7500   -6.4952    0.0000 C   0  0  0  0  0  0  0  0  0  0  0  0
    1.5000   -5.1962    0.0000 C   0  0  0  0  0  0  0  0  0  0  0  0
    0.7500   -3.8971    0.0000 N   0  0  0  0  0  0  0  0  0  0  0  0
    1.5000   -2.5981    0.0000 C   0  0  0  0  0  0  0  0  0  0  0  0
    3.0000   -2.5981    0.0000 O   0  0  0  0  0  0  0  0  0  0  0  0
    0.7500   -1.2990    0.0000 C   0  0  0  0  0  0  0  0  0  0  0  0
    1.5000    0.0000    0.0000 C   0  0  0  0  0  0  0  0  0  0  0  0
    0.7500    1.2990    0.0000 C   0  0  0  0  0  0  0  0  0  0  0  0
   -0.7500    1.2990    0.0000 C   0  0  0  0  0  0  0  0  0  0  0  0
   -1.5000    2.5981    0.0000 N   0  0  0  0  0  0  0  0  0  0  0  0
   -3.0000    2.5981    0.0000 C   0  0  0  0  0  0  0  0  0  0  0  0
   -3.7500    3.8971    0.0000 N   0  0  0  0  0  0  0  0  0  0  0  0
   -3.0000    5.1962    0.0000 C   0  0  0  0  0  0  0  0  0  0  0  0
   -3.7500    6.4952    0.0000 C   0  0  0  0  0  0  0  0  0  0  0  0
   -5.2500    6.4952    0.0000 N   0  0  0  0  0  0  0  0  0  0  0  0
   -6.0000    5.1962    0.0000 C   0  0  0  0  0  0  0  0  0  0  0  0
   -5.2500    3.8971    0.0000 C   0  0  0  0  0  0  0  0  0  0  0  0
   -3.7500    1.2990    0.0000 C   0  0  0  0  0  0  0  0  0  0  0  0
   -3.0000    0.0000    0.0000 N   0  0  0  0  0  0  0  0  0  0  0  0
   -1.5000    0.0000    0.0000 C   0  0  0  0  0  0  0  0  0  0  0  0
   -0.7500   -1.2990    0.0000 C   0  0  0  0  0  0  0  0  0  0  0  0
  1  2  1  0
  2  3  2  0
  3  4  1  0
  4  5  2  0
  5  6  1  0
  5  7  1  0
  7  8  2  0
  8  9  1  0
  9 10  1  0
 10 11  2  0
 10 12  1  0
 12 13  2  0
 13 14  1  0
 14 15  2  0
 15 16  1  0
 16 17  2  0
 17 18  1  0
 18 19  1  0
 19 20  1  0
 20 21  1  0
 21 22  1  0
 22 23  1  0
 17 24  1  0
 24 25  2  0
 25 26  1  0
 26 27  2  0
  8  2  1  0
 27 12  1  0
 26 15  1  0
 23 18  1  0
M  END
>  <molecule_chembl_id>  (430) 
CHEMBL3664036

>  <canonical_smiles>  (430) 
Nc1ccc(F)cc1NC(=O)c1ccc2nc(N3CCNCC3)cnc2c1

>  <pchembl_value_mean>  (430) 
5.96

>  <document_chembl_id>  (430) 
CHEMBL3639382

$$$$

     RDKit          2D

 40 42  0  0  0  0  0  0  0  0999 V2000
    4.7302   -3.7586    0.0000 C   0  0  0  0  0  0  0  0  0  0  0  0
    3.3037   -4.2221    0.0000 C   0  0  0  0  0  0  0  0  0  0  0  0
    3.9138   -5.5924    0.0000 C   0  0  0  0  0  0  0  0  0  0  0  0
    2.9918   -2.7549    0.0000 C   0  0  0  0  0  0  0  0  0  0  0  0
    3.9955   -1.6402    0.0000 O   0  0  0  0  0  0  0  0  0  0  0  0
    1.5000   -2.5981    0.0000 N   0  0  0  0  0  0  0  0  0  0  0  0
    0.7500   -1.2990    0.0000 C   0  0  0  0  0  0  0  0  0  0  0  0
    1.5000    0.0000    0.0000 C   0  0  0  0  0  0  0  0  0  0  0  0
    0.7500    1.2990    0.0000 C   0  0  0  0  0  0  0  0  0  0  0  0
   -0.7500    1.2990    0.0000 C   0  0  0  0  0  0  0  0  0  0  0  0
   -1.5000    2.5981    0.0000 C   0  0  0  0  0  0  0  0  0  0  0  0
   -2.2500    3.8971    0.0000 N   0  0  0  0  0  0  0  0  0  0  0  0
   -1.5000    0.0000    0.0000 C   0  0  0  0  0  0  0  0  0  0  0  0
   -3.0000    0.0000    0.0000 C   0  0  0  0  0  0  0  0  0  0  0  0
   -4.5000    0.0000    0.0000 F   0  0  0  0  0  0  0  0  0  0  0  0
   -3.0000   -1.5000    0.0000 F   0  0  0  0  0  0  0  0  0  0  0  0
   -3.0000    1.5000    0.0000 F   0  0  0  0  0  0  0  0  0  0  0  0
   -0.7500   -1.2990    0.0000 C   0  0  0  0  0  0  0  0  0  0  0  0
    0.8899   -3.9684    0.0000 C   0  0  0  0  0  0  0  0  0  0  0  0
   -0.5773   -4.2803    0.0000 S   0  0  0  0  0  0  0  0  0  0  0  0
    2.0046   -4.9721    0.0000 N   0  0  0  0  0  0  0  0  0  0  0  0
    1.8478   -6.4639    0.0000 C   0  0  0  0  0  0  0  0  0  0  0  0
    0.4775   -7.0740    0.0000 C   0  0  0  0  0  0  0  0  0  0  0  0
    0.3207   -8.5658    0.0000 C   0  0  0  0  0  0  0  0  0  0  0  0
    1.5342   -9.4474    0.0000 C   0  0  0  0  0  0  0  0  0  0  0  0
    1.3774  -10.9392    0.0000 C   0  0  0  0  0  0  0  0  0  0  0  0
    2.5910  -11.8209    0.0000 O   0  0  0  0  0  0  0  0  0  0  0  0
    0.0071  -11.5493    0.0000 O   0  0  0  0  0  0  0  0  0  0  0  0
   -0.1497  -13.0411    0.0000 C   0  0  0  0  0  0  0  0  0  0  0  0
   -1.5200  -13.6512    0.0000 C   0  0  0  0  0  0  0  0  0  0  0  0
   -1.6768  -15.1430    0.0000 C   0  0  0  0  0  0  0  0  0  0  0  0
   -3.0471  -15.7531    0.0000 C   0  0  0  0  0  0  0  0  0  0  0  0
   -3.2039  -17.2449    0.0000 C   0  0  0  0  0  0  0  0  0  0  0  0
   -4.5742  -17.8550    0.0000 C   0  0  0  0  0  0  0  0  0  0  0  0
   -5.7877  -16.9733    0.0000 O   0  0  0  0  0  0  0  0  0  0  0  0
   -4.7310  -19.3468    0.0000 N   0  0  0  0  0  0  0  0  0  0  0  0
   -6.1013  -19.9569    0.0000 O   0  0  0  0  0  0  0  0  0  0  0  0
    2.9046   -8.8373    0.0000 C   0  0  0  0  0  0  0  0  0  0  0  0
    4.1181   -9.7190    0.0000 F   0  0  0  0  0  0  0  0  0  0  0  0
    3.0613   -7.3456    0.0000 C   0  0  0  0  0  0  0  0  0  0  0  0
  1  2  1  0
  2  3  1  0
  2  4  1  0
  4  5  2  0
  4  6  1  0
  6  7  1  0
  7  8  2  0
  8  9  1  0
  9 10  2  0
 10 11  1  0
 11 12  3  0
 10 13  1  0
 13 14  1  0
 14 15  1  0
 14 16  1  0
 14 17  1  0
 13 18  2  0
  6 19  1  0
 19 20  2  0
 19 21  1  0
 21 22  1  0
 22 23  2  0
 23 24  1  0
 24 25  2  0
 25 26  1  0
 26 27  2  0
 26 28  1  0
 28 29  1  0
 29 30  1  0
 30 31  1  0
 31 32  1  0
 32 33  1  0
 33 34  1  0
 34 35  2  0
 34 36  1  0
 36 37  1  0
 25 38  1  0
 38 39  1  0
 38 40  2  0
 21  2  1  0
 40 22  1  0
 18  7  1  0
M  END
>  <molecule_chembl_id>  (431) 
CHEMBL3894825

>  <canonical_smiles>  (431) 
CC1(C)C(=O)N(c2ccc(C#N)c(C(F)(F)F)c2)C(=S)N1c1ccc(C(=O)OCCCCCC(=O)NO)c(F)c1

>  <pchembl_value_mean>  (431) 
5.96

>  <document_chembl_id>  (431) 
CHEMBL3862016

$$$$

     RDKit          2D

 25 26  0  0  0  0  0  0  0  0999 V2000
    3.7500   -1.2990    0.0000 C   0  0  0  0  0  0  0  0  0  0  0  0
    3.0000    0.0000    0.0000 O   0  0  0  0  0  0  0  0  0  0  0  0
    1.5000    0.0000    0.0000 C   0  0  0  0  0  0  0  0  0  0  0  0
    0.7500   -1.2990    0.0000 C   0  0  0  0  0  0  0  0  0  0  0  0
   -0.7500   -1.2990    0.0000 C   0  0  0  0  0  0  0  0  0  0  0  0
   -1.5000    0.0000    0.0000 C   0  0  0  0  0  0  0  0  0  0  0  0
   -0.7500    1.2990    0.0000 C   0  0  0  0  0  0  0  0  0  0  0  0
   -1.5000    2.5981    0.0000 O   0  0  0  0  0  0  0  0  0  0  0  0
   -3.0000    2.5981    0.0000 C   0  0  0  0  0  0  0  0  0  0  0  0
    0.7500    1.2990    0.0000 C   0  0  0  0  0  0  0  0  0  0  0  0
    1.5000    2.5981    0.0000 C   0  0  0  0  0  0  0  0  0  0  0  0
    3.0000    2.5981    0.0000 N   0  0  0  0  0  0  0  0  0  0  0  0
    3.7500    3.8971    0.0000 C   0  0  0  0  0  0  0  0  0  0  0  0
    5.2500    3.8971    0.0000 C   0  0  0  0  0  0  0  0  0  0  0  0
    6.0000    2.5981    0.0000 C   0  0  0  0  0  0  0  0  0  0  0  0
    7.5000    2.5981    0.0000 C   0  0  0  0  0  0  0  0  0  0  0  0
    8.2500    3.8971    0.0000 C   0  0  0  0  0  0  0  0  0  0  0  0
    9.7500    3.8971    0.0000 C   0  0  0  0  0  0  0  0  0  0  0  0
   10.5000    2.5981    0.0000 C   0  0  0  0  0  0  0  0  0  0  0  0
   12.0000    2.5981    0.0000 C   0  0  0  0  0  0  0  0  0  0  0  0
   12.7500    3.8971    0.0000 O   0  0  0  0  0  0  0  0  0  0  0  0
   12.7500    1.2990    0.0000 N   0  0  0  0  0  0  0  0  0  0  0  0
   14.2500    1.2990    0.0000 O   0  0  0  0  0  0  0  0  0  0  0  0
    7.5000    5.1962    0.0000 C   0  0  0  0  0  0  0  0  0  0  0  0
    6.0000    5.1962    0.0000 C   0  0  0  0  0  0  0  0  0  0  0  0
  1  2  1  0
  2  3  1  0
  3  4  2  0
  4  5  1  0
  5  6  2  0
  6  7  1  0
  7  8  1  0
  8  9  1  0
  7 10  2  0
 10 11  1  0
 11 12  1  0
 12 13  1  0
 13 14  1  0
 14 15  2  0
 15 16  1  0
 16 17  2  0
 17 18  1  0
 18 19  2  3
 19 20  1  0
 20 21  2  0
 20 22  1  0
 22 23  1  0
 17 24  1  0
 24 25  2  0
 10  3  1  0
 25 14  1  0
M  END
>  <molecule_chembl_id>  (432) 
CHEMBL4466520

>  <canonical_smiles>  (432) 
COc1cccc(OC)c1CNCc1ccc(C=CC(=O)NO)cc1

>  <pchembl_value_mean>  (432) 
5.97

>  <document_chembl_id>  (432) 
CHEMBL4385666

$$$$

     RDKit          2D

 21 22  0  0  0  0  0  0  0  0999 V2000
    5.2500   -1.2990    0.0000 C   0  0  0  0  0  0  0  0  0  0  0  0
    3.7500   -1.2990    0.0000 C   0  0  0  0  0  0  0  0  0  0  0  0
    3.0000   -2.5981    0.0000 O   0  0  0  0  0  0  0  0  0  0  0  0
    3.0000    0.0000    0.0000 N   0  0  0  0  0  0  0  0  0  0  0  0
    1.5000    0.0000    0.0000 C   0  0  0  0  0  0  0  0  0  0  0  0
    0.7500   -1.2990    0.0000 C   0  0  0  0  0  0  0  0  0  0  0  0
   -0.7500   -1.2990    0.0000 C   0  0  0  0  0  0  0  0  0  0  0  0
   -1.5000    0.0000    0.0000 C   0  0  0  0  0  0  0  0  0  0  0  0
   -3.0000    0.0000    0.0000 C   0  0  0  0  0  0  0  0  0  0  0  0
   -3.7500   -1.2990    0.0000 O   0  0  0  0  0  0  0  0  0  0  0  0
   -3.7500    1.2990    0.0000 N   0  0  0  0  0  0  0  0  0  0  0  0
   -5.2500    1.2990    0.0000 C   0  0  0  0  0  0  0  0  0  0  0  0
   -6.0000    2.5981    0.0000 C   0  0  0  0  0  0  0  0  0  0  0  0
   -7.5000    2.5981    0.0000 C   0  0  0  0  0  0  0  0  0  0  0  0
   -8.2500    1.2990    0.0000 C   0  0  0  0  0  0  0  0  0  0  0  0
   -9.7500    1.2990    0.0000 F   0  0  0  0  0  0  0  0  0  0  0  0
   -7.5000    0.0000    0.0000 C   0  0  0  0  0  0  0  0  0  0  0  0
   -6.0000    0.0000    0.0000 C   0  0  0  0  0  0  0  0  0  0  0  0
   -5.2500   -1.2990    0.0000 N   0  0  0  0  0  0  0  0  0  0  0  0
   -0.7500    1.2990    0.0000 C   0  0  0  0  0  0  0  0  0  0  0  0
    0.7500    1.2990    0.0000 C   0  0  0  0  0  0  0  0  0  0  0  0
  1  2  1  0
  2  3  2  0
  2  4  1  0
  4  5  1  0
  5  6  2  0
  6  7  1  0
  7  8  2  0
  8  9  1  0
  9 10  2  0
  9 11  1  0
 11 12  1  0
 12 13  2  0
 13 14  1  0
 14 15  2  0
 15 16  1  0
 15 17  1  0
 17 18  2  0
 18 19  1  0
  8 20  1  0
 20 21  2  0
 21  5  1  0
 18 12  1  0
M  END
>  <molecule_chembl_id>  (433) 
CHEMBL4293858

>  <canonical_smiles>  (433) 
CC(=O)Nc1ccc(C(=O)Nc2ccc(F)cc2N)cc1

>  <pchembl_value_mean>  (433) 
5.97

>  <document_chembl_id>  (433) 
CHEMBL4400533

$$$$

     RDKit          2D

 23 24  0  0  0  0  0  0  0  0999 V2000
   10.4688  -10.2562    0.0000 O   0  0  0  0  0  0  0  0  0  0  0  0
    9.2553  -11.1379    0.0000 C   0  0  0  0  0  0  0  0  0  0  0  0
    7.8850  -10.5278    0.0000 C   0  0  0  0  0  0  0  0  0  0  0  0
    7.7282   -9.0360    0.0000 C   0  0  0  0  0  0  0  0  0  0  0  0
    6.3579   -8.4259    0.0000 C   0  0  0  0  0  0  0  0  0  0  0  0
    6.2011   -6.9341    0.0000 C   0  0  0  0  0  0  0  0  0  0  0  0
    4.8308   -6.3240    0.0000 C   0  0  0  0  0  0  0  0  0  0  0  0
    4.6740   -4.8322    0.0000 C   0  0  0  0  0  0  0  0  0  0  0  0
    3.3037   -4.2221    0.0000 C   0  0  0  0  0  0  0  0  0  0  0  0
    2.9918   -2.7549    0.0000 N   0  0  0  0  0  0  0  0  0  0  0  0
    1.5000   -2.5981    0.0000 C   0  0  0  0  0  0  0  0  0  0  0  0
    0.7500   -1.2990    0.0000 C   0  0  0  0  0  0  0  0  0  0  0  0
    1.5000    0.0000    0.0000 C   0  0  0  0  0  0  0  0  0  0  0  0
    0.7500    1.2990    0.0000 C   0  0  0  0  0  0  0  0  0  0  0  0
   -0.7500    1.2990    0.0000 C   0  0  0  0  0  0  0  0  0  0  0  0
   -1.5000    0.0000    0.0000 C   0  0  0  0  0  0  0  0  0  0  0  0
   -0.7500   -1.2990    0.0000 C   0  0  0  0  0  0  0  0  0  0  0  0
    0.8899   -3.9684    0.0000 N   0  0  0  0  0  0  0  0  0  0  0  0
    2.0046   -4.9721    0.0000 O   0  0  0  0  0  0  0  0  0  0  0  0
    9.4121  -12.6296    0.0000 C   0  0  0  0  0  0  0  0  0  0  0  0
    9.5689  -14.1214    0.0000 F   0  0  0  0  0  0  0  0  0  0  0  0
   10.9039  -12.4728    0.0000 F   0  0  0  0  0  0  0  0  0  0  0  0
    7.9203  -12.7864    0.0000 F   0  0  0  0  0  0  0  0  0  0  0  0
  1  2  2  0
  2  3  1  0
  3  4  1  0
  4  5  1  0
  5  6  1  0
  6  7  1  0
  7  8  1  0
  8  9  1  0
  9 10  2  0
 10 11  1  0
 11 12  1  0
 12 13  2  0
 13 14  1  0
 14 15  2  0
 15 16  1  0
 16 17  2  0
 11 18  2  0
 18 19  1  0
  2 20  1  0
 20 21  1  0
 20 22  1  0
 20 23  1  0
 19  9  1  0
 17 12  1  0
M  END
>  <molecule_chembl_id>  (434) 
CHEMBL3585980

>  <canonical_smiles>  (434) 
O=C(CCCCCCc1nc(-c2ccccc2)no1)C(F)(F)F

>  <pchembl_value_mean>  (434) 
5.98

>  <document_chembl_id>  (434) 
CHEMBL3585316

$$$$

     RDKit          2D

 10 10  0  0  0  0  0  0  0  0999 V2000
    3.7500    1.2990    0.0000 O   0  0  0  0  0  0  0  0  0  0  0  0
    3.0000    0.0000    0.0000 C   0  0  0  0  0  0  0  0  0  0  0  0
    3.7500   -1.2990    0.0000 N   0  0  0  0  0  0  0  0  0  0  0  0
    5.2500   -1.2990    0.0000 O   0  0  0  0  0  0  0  0  0  0  0  0
    1.5000    0.0000    0.0000 C   0  0  0  0  0  0  0  0  0  0  0  0
    0.7500   -1.2990    0.0000 C   0  0  0  0  0  0  0  0  0  0  0  0
   -0.7500   -1.2990    0.0000 C   0  0  0  0  0  0  0  0  0  0  0  0
   -1.5000    0.0000    0.0000 C   0  0  0  0  0  0  0  0  0  0  0  0
   -0.7500    1.2990    0.0000 C   0  0  0  0  0  0  0  0  0  0  0  0
    0.7500    1.2990    0.0000 C   0  0  0  0  0  0  0  0  0  0  0  0
  1  2  2  0
  2  3  1  0
  3  4  1  0
  2  5  1  0
  5  6  2  0
  6  7  1  0
  7  8  1  0
  8  9  1  0
  9 10  1  0
 10  5  1  0
M  END
>  <molecule_chembl_id>  (435) 
CHEMBL2333344

>  <canonical_smiles>  (435) 
O=C(NO)C1=CCCCC1

>  <pchembl_value_mean>  (435) 
5.98

>  <document_chembl_id>  (435) 
CHEMBL2331470

$$$$

     RDKit          2D

 27 29  0  0  0  0  0  0  0  0999 V2000
   -4.3786   -5.1199    0.0000 C   0  0  0  0  0  0  0  0  0  0  0  0
   -2.9520   -4.6564    0.0000 N   0  0  0  0  0  0  0  0  0  0  0  0
   -1.8373   -5.6601    0.0000 C   0  0  0  0  0  0  0  0  0  0  0  0
   -2.6401   -3.1891    0.0000 C   0  0  0  0  0  0  0  0  0  0  0  0
   -3.7548   -2.1855    0.0000 O   0  0  0  0  0  0  0  0  0  0  0  0
   -1.2135   -2.7256    0.0000 C   0  0  0  0  0  0  0  0  0  0  0  0
   -0.0000   -3.6073    0.0000 C   0  0  0  0  0  0  0  0  0  0  0  0
    1.2135   -2.7256    0.0000 N   0  0  0  0  0  0  0  0  0  0  0  0
    2.6401   -3.1891    0.0000 C   0  0  0  0  0  0  0  0  0  0  0  0
    2.9520   -4.6564    0.0000 C   0  0  0  0  0  0  0  0  0  0  0  0
    1.8373   -5.6601    0.0000 C   0  0  0  0  0  0  0  0  0  0  0  0
    2.1491   -7.1273    0.0000 C   0  0  0  0  0  0  0  0  0  0  0  0
    3.5757   -7.5908    0.0000 C   0  0  0  0  0  0  0  0  0  0  0  0
    3.8876   -9.0580    0.0000 C   0  0  0  0  0  0  0  0  0  0  0  0
    2.7729  -10.0617    0.0000 C   0  0  0  0  0  0  0  0  0  0  0  0
    3.0847  -11.5290    0.0000 C   0  0  0  0  0  0  0  0  0  0  0  0
    4.5113  -11.9925    0.0000 O   0  0  0  0  0  0  0  0  0  0  0  0
    1.9700  -12.5326    0.0000 N   0  0  0  0  0  0  0  0  0  0  0  0
    2.2819  -13.9999    0.0000 O   0  0  0  0  0  0  0  0  0  0  0  0
    4.6904   -6.5871    0.0000 C   0  0  0  0  0  0  0  0  0  0  0  0
    4.3786   -5.1199    0.0000 C   0  0  0  0  0  0  0  0  0  0  0  0
    0.7500   -1.2990    0.0000 C   0  0  0  0  0  0  0  0  0  0  0  0
    1.5000    0.0000    0.0000 C   0  0  0  0  0  0  0  0  0  0  0  0
    0.7500    1.2990    0.0000 C   0  0  0  0  0  0  0  0  0  0  0  0
   -0.7500    1.2990    0.0000 C   0  0  0  0  0  0  0  0  0  0  0  0
   -1.5000    0.0000    0.0000 C   0  0  0  0  0  0  0  0  0  0  0  0
   -0.7500   -1.2990    0.0000 C   0  0  0  0  0  0  0  0  0  0  0  0
  1  2  1  0
  2  3  1  0
  2  4  1  0
  4  5  2  0
  4  6  1  0
  6  7  2  0
  7  8  1  0
  8  9  1  0
  9 10  1  0
 10 11  2  0
 11 12  1  0
 12 13  2  0
 13 14  1  0
 14 15  2  3
 15 16  1  0
 16 17  2  0
 16 18  1  0
 18 19  1  0
 13 20  1  0
 20 21  2  0
  8 22  1  0
 22 23  2  0
 23 24  1  0
 24 25  2  0
 25 26  1  0
 26 27  2  0
 27  6  1  0
 21 10  1  0
 27 22  1  0
M  END
>  <molecule_chembl_id>  (436) 
CHEMBL4086671

>  <canonical_smiles>  (436) 
CN(C)C(=O)c1cn(Cc2ccc(C=CC(=O)NO)cc2)c2ccccc12

>  <pchembl_value_mean>  (436) 
5.98

>  <document_chembl_id>  (436) 
CHEMBL3994606

$$$$

     RDKit          2D

 23 24  0  0  0  0  0  0  0  0999 V2000
    3.0000    0.0000    0.0000 N   0  0  0  0  0  0  0  0  0  0  0  0
    1.5000    0.0000    0.0000 C   0  0  0  0  0  0  0  0  0  0  0  0
    0.7500   -1.2990    0.0000 C   0  0  0  0  0  0  0  0  0  0  0  0
   -0.7500   -1.2990    0.0000 C   0  0  0  0  0  0  0  0  0  0  0  0
   -1.5000    0.0000    0.0000 C   0  0  0  0  0  0  0  0  0  0  0  0
   -3.0000    0.0000    0.0000 C   0  0  0  0  0  0  0  0  0  0  0  0
   -3.8817   -1.2135    0.0000 C   0  0  0  0  0  0  0  0  0  0  0  0
   -5.3083   -0.7500    0.0000 C   0  0  0  0  0  0  0  0  0  0  0  0
   -6.5218   -1.6317    0.0000 C   0  0  0  0  0  0  0  0  0  0  0  0
   -6.3650   -3.1235    0.0000 O   0  0  0  0  0  0  0  0  0  0  0  0
   -7.8921   -1.0216    0.0000 N   0  0  0  0  0  0  0  0  0  0  0  0
   -9.1056   -1.9033    0.0000 C   0  0  0  0  0  0  0  0  0  0  0  0
  -10.4760   -1.2931    0.0000 C   0  0  0  0  0  0  0  0  0  0  0  0
  -11.6895   -2.1748    0.0000 C   0  0  0  0  0  0  0  0  0  0  0  0
  -13.0598   -1.5647    0.0000 C   0  0  0  0  0  0  0  0  0  0  0  0
  -14.2733   -2.4464    0.0000 C   0  0  0  0  0  0  0  0  0  0  0  0
  -14.1165   -3.9382    0.0000 O   0  0  0  0  0  0  0  0  0  0  0  0
  -15.6436   -1.8363    0.0000 N   0  0  0  0  0  0  0  0  0  0  0  0
  -16.8572   -2.7180    0.0000 O   0  0  0  0  0  0  0  0  0  0  0  0
   -5.3083    0.7500    0.0000 N   0  0  0  0  0  0  0  0  0  0  0  0
   -3.8817    1.2135    0.0000 O   0  0  0  0  0  0  0  0  0  0  0  0
   -0.7500    1.2990    0.0000 C   0  0  0  0  0  0  0  0  0  0  0  0
    0.7500    1.2990    0.0000 C   0  0  0  0  0  0  0  0  0  0  0  0
  1  2  1  0
  2  3  2  0
  3  4  1  0
  4  5  2  0
  5  6  1  0
  6  7  2  0
  7  8  1  0
  8  9  1  0
  9 10  2  0
  9 11  1  0
 11 12  1  0
 12 13  1  0
 13 14  1  0
 14 15  1  0
 15 16  1  0
 16 17  2  0
 16 18  1  0
 18 19  1  0
  8 20  2  0
 20 21  1  0
  5 22  1  0
 22 23  2  0
 23  2  1  0
 21  6  1  0
M  END
>  <molecule_chembl_id>  (437) 
CHEMBL468841

>  <canonical_smiles>  (437) 
Nc1ccc(-c2cc(C(=O)NCCCCC(=O)NO)no2)cc1

>  <pchembl_value_mean>  (437) 
5.98

>  <document_chembl_id>  (437) 
CHEMBL1155917

$$$$

     RDKit          2D

 24 25  0  0  0  0  0  0  0  0999 V2000
    2.0490   -4.6471    0.0000 C   0  0  0  0  0  0  0  0  0  0  0  0
    0.7500   -3.8971    0.0000 C   0  0  0  0  0  0  0  0  0  0  0  0
   -0.5490   -3.1471    0.0000 C   0  0  0  0  0  0  0  0  0  0  0  0
    1.5000   -2.5981    0.0000 N   0  0  0  0  0  0  0  0  0  0  0  0
    0.7500   -1.2990    0.0000 C   0  0  0  0  0  0  0  0  0  0  0  0
    1.5000    0.0000    0.0000 N   0  0  0  0  0  0  0  0  0  0  0  0
    0.7500    1.2990    0.0000 C   0  0  0  0  0  0  0  0  0  0  0  0
   -0.7500    1.2990    0.0000 C   0  0  0  0  0  0  0  0  0  0  0  0
   -1.5000    2.5981    0.0000 C   0  0  0  0  0  0  0  0  0  0  0  0
   -3.0000    2.5981    0.0000 O   0  0  0  0  0  0  0  0  0  0  0  0
   -0.7500    3.8971    0.0000 N   0  0  0  0  0  0  0  0  0  0  0  0
   -1.5000    5.1962    0.0000 O   0  0  0  0  0  0  0  0  0  0  0  0
   -1.5000    0.0000    0.0000 C   0  0  0  0  0  0  0  0  0  0  0  0
   -0.7500   -1.2990    0.0000 N   0  0  0  0  0  0  0  0  0  0  0  0
   -0.0000   -5.1962    0.0000 C   0  0  0  0  0  0  0  0  0  0  0  0
   -1.5000   -5.1962    0.0000 C   0  0  0  0  0  0  0  0  0  0  0  0
   -2.2500   -6.4952    0.0000 C   0  0  0  0  0  0  0  0  0  0  0  0
   -1.5000   -7.7942    0.0000 C   0  0  0  0  0  0  0  0  0  0  0  0
   -2.2500   -9.0933    0.0000 C   0  0  0  0  0  0  0  0  0  0  0  0
   -3.0000  -10.3923    0.0000 F   0  0  0  0  0  0  0  0  0  0  0  0
   -3.5490   -8.3433    0.0000 F   0  0  0  0  0  0  0  0  0  0  0  0
   -0.9510   -9.8433    0.0000 F   0  0  0  0  0  0  0  0  0  0  0  0
   -0.0000   -7.7942    0.0000 C   0  0  0  0  0  0  0  0  0  0  0  0
    0.7500   -6.4952    0.0000 C   0  0  0  0  0  0  0  0  0  0  0  0
  1  2  1  0
  2  3  1  0
  2  4  1  0
  4  5  1  0
  5  6  2  0
  6  7  1  0
  7  8  2  0
  8  9  1  0
  9 10  2  0
  9 11  1  0
 11 12  1  0
  8 13  1  0
 13 14  2  0
  2 15  1  0
 15 16  2  0
 16 17  1  0
 17 18  2  0
 18 19  1  0
 19 20  1  0
 19 21  1  0
 19 22  1  0
 18 23  1  0
 23 24  2  0
 14  5  1  0
 24 15  1  0
M  END
>  <molecule_chembl_id>  (438) 
CHEMBL3655951

>  <canonical_smiles>  (438) 
CC(C)(Nc1ncc(C(=O)NO)cn1)c1ccc(C(F)(F)F)cc1

>  <pchembl_value_mean>  (438) 
5.99

>  <document_chembl_id>  (438) 
CHEMBL3639071

$$$$

     RDKit          2D

 34 37  0  0  0  0  0  0  0  0999 V2000
    6.0000    0.0000    0.0000 O   0  0  0  0  0  0  0  0  0  0  0  0
    5.2500   -1.2990    0.0000 C   0  0  0  0  0  0  0  0  0  0  0  0
    3.7500   -1.2990    0.0000 C   0  0  0  0  0  0  0  0  0  0  0  0
    3.0000    0.0000    0.0000 C   0  0  0  0  0  0  0  0  0  0  0  0
    1.5000    0.0000    0.0000 C   0  0  0  0  0  0  0  0  0  0  0  0
    0.7500   -1.2990    0.0000 C   0  0  0  0  0  0  0  0  0  0  0  0
   -0.7500   -1.2990    0.0000 C   0  0  0  0  0  0  0  0  0  0  0  0
   -1.5000    0.0000    0.0000 C   0  0  0  0  0  0  0  0  0  0  0  0
   -3.0000    0.0000    0.0000 C   0  0  0  0  0  0  0  0  0  0  0  0
   -3.7500    1.2990    0.0000 N   0  0  0  0  0  0  0  0  0  0  0  0
   -5.2418    1.4558    0.0000 C   0  0  0  0  0  0  0  0  0  0  0  0
   -5.5537    2.9231    0.0000 C   0  0  0  0  0  0  0  0  0  0  0  0
   -6.9240    3.5332    0.0000 N   0  0  0  0  0  0  0  0  0  0  0  0
   -7.0808    5.0249    0.0000 C   0  0  0  0  0  0  0  0  0  0  0  0
   -5.8672    5.9066    0.0000 N   0  0  0  0  0  0  0  0  0  0  0  0
   -6.0240    7.3984    0.0000 C   0  0  0  0  0  0  0  0  0  0  0  0
   -7.3943    8.0085    0.0000 C   0  0  0  0  0  0  0  0  0  0  0  0
   -7.5511    9.5003    0.0000 Cl  0  0  0  0  0  0  0  0  0  0  0  0
   -8.6079    7.1268    0.0000 C   0  0  0  0  0  0  0  0  0  0  0  0
   -9.9782    7.7369    0.0000 N   0  0  0  0  0  0  0  0  0  0  0  0
  -11.1917    6.8553    0.0000 C   0  0  0  0  0  0  0  0  0  0  0  0
  -12.5620    7.4654    0.0000 C   0  0  0  0  0  0  0  0  0  0  0  0
  -13.7756    6.5837    0.0000 C   0  0  0  0  0  0  0  0  0  0  0  0
  -13.6188    5.0919    0.0000 C   0  0  0  0  0  0  0  0  0  0  0  0
  -14.8323    4.2102    0.0000 F   0  0  0  0  0  0  0  0  0  0  0  0
  -12.2484    4.4818    0.0000 C   0  0  0  0  0  0  0  0  0  0  0  0
  -11.0349    5.3635    0.0000 C   0  0  0  0  0  0  0  0  0  0  0  0
   -8.4511    5.6350    0.0000 N   0  0  0  0  0  0  0  0  0  0  0  0
   -4.2546    3.6731    0.0000 C   0  0  0  0  0  0  0  0  0  0  0  0
   -3.1399    2.6694    0.0000 N   0  0  0  0  0  0  0  0  0  0  0  0
   -0.7500    1.2990    0.0000 C   0  0  0  0  0  0  0  0  0  0  0  0
    0.7500    1.2990    0.0000 C   0  0  0  0  0  0  0  0  0  0  0  0
    6.0000   -2.5981    0.0000 N   0  0  0  0  0  0  0  0  0  0  0  0
    7.5000   -2.5981    0.0000 O   0  0  0  0  0  0  0  0  0  0  0  0
  1  2  2  0
  2  3  1  0
  3  4  2  3
  4  5  1  0
  5  6  2  0
  6  7  1  0
  7  8  2  0
  8  9  1  0
  9 10  1  0
 10 11  1  0
 11 12  2  0
 12 13  1  0
 13 14  1  0
 14 15  2  0
 15 16  1  0
 16 17  2  0
 17 18  1  0
 17 19  1  0
 19 20  1  0
 20 21  1  0
 21 22  2  0
 22 23  1  0
 23 24  2  0
 24 25  1  0
 24 26  1  0
 26 27  2  0
 19 28  2  0
 12 29  1  0
 29 30  2  0
  8 31  1  0
 31 32  2  0
  2 33  1  0
 33 34  1  0
 32  5  1  0
 30 10  1  0
 28 14  1  0
 27 21  1  0
M  END
>  <molecule_chembl_id>  (439) 
CHEMBL4540416

>  <canonical_smiles>  (439) 
O=C(C=Cc1ccc(Cn2cc(Nc3ncc(Cl)c(Nc4ccc(F)cc4)n3)cn2)cc1)NO

>  <pchembl_value_mean>  (439) 
6.0

>  <document_chembl_id>  (439) 
CHEMBL4346670

$$$$

     RDKit          2D

 39 41  0  0  0  0  0  0  0  0999 V2000
    1.3299    5.6152    0.0000 C   0  0  0  0  0  0  0  0  0  0  0  0
   -0.0967    5.1517    0.0000 O   0  0  0  0  0  0  0  0  0  0  0  0
   -0.4086    3.6844    0.0000 C   0  0  0  0  0  0  0  0  0  0  0  0
    0.7062    2.6807    0.0000 C   0  0  0  0  0  0  0  0  0  0  0  0
    0.3943    1.2135    0.0000 C   0  0  0  0  0  0  0  0  0  0  0  0
    1.2760    0.0000    0.0000 C   0  0  0  0  0  0  0  0  0  0  0  0
    0.3943   -1.2135    0.0000 C   0  0  0  0  0  0  0  0  0  0  0  0
   -1.0323   -0.7500    0.0000 N   0  0  0  0  0  0  0  0  0  0  0  0
   -2.2458   -1.6317    0.0000 C   0  0  0  0  0  0  0  0  0  0  0  0
   -2.0890   -3.1235    0.0000 C   0  0  0  0  0  0  0  0  0  0  0  0
   -3.3025   -4.0051    0.0000 C   0  0  0  0  0  0  0  0  0  0  0  0
   -3.1458   -5.4969    0.0000 C   0  0  0  0  0  0  0  0  0  0  0  0
   -4.3593   -6.3786    0.0000 O   0  0  0  0  0  0  0  0  0  0  0  0
   -4.2025   -7.8704    0.0000 C   0  0  0  0  0  0  0  0  0  0  0  0
   -5.4160   -8.7521    0.0000 C   0  0  0  0  0  0  0  0  0  0  0  0
   -5.2592  -10.2438    0.0000 C   0  0  0  0  0  0  0  0  0  0  0  0
   -3.8889  -10.8539    0.0000 C   0  0  0  0  0  0  0  0  0  0  0  0
   -2.6754   -9.9723    0.0000 C   0  0  0  0  0  0  0  0  0  0  0  0
   -1.3051  -10.5824    0.0000 N   0  0  0  0  0  0  0  0  0  0  0  0
   -1.1483  -12.0742    0.0000 C   0  0  0  0  0  0  0  0  0  0  0  0
   -2.3618  -12.9558    0.0000 O   0  0  0  0  0  0  0  0  0  0  0  0
    0.2221  -12.6843    0.0000 C   0  0  0  0  0  0  0  0  0  0  0  0
    0.3788  -14.1760    0.0000 C   0  0  0  0  0  0  0  0  0  0  0  0
    1.7492  -14.7862    0.0000 C   0  0  0  0  0  0  0  0  0  0  0  0
    1.9060  -16.2779    0.0000 C   0  0  0  0  0  0  0  0  0  0  0  0
    3.2763  -16.8880    0.0000 C   0  0  0  0  0  0  0  0  0  0  0  0
    3.4331  -18.3798    0.0000 C   0  0  0  0  0  0  0  0  0  0  0  0
    4.8034  -18.9899    0.0000 C   0  0  0  0  0  0  0  0  0  0  0  0
    6.0169  -18.1082    0.0000 O   0  0  0  0  0  0  0  0  0  0  0  0
    4.9602  -20.4817    0.0000 N   0  0  0  0  0  0  0  0  0  0  0  0
    6.3305  -21.0918    0.0000 O   0  0  0  0  0  0  0  0  0  0  0  0
   -2.8322   -8.4805    0.0000 C   0  0  0  0  0  0  0  0  0  0  0  0
   -1.0323    0.7500    0.0000 C   0  0  0  0  0  0  0  0  0  0  0  0
   -2.1470    1.7537    0.0000 C   0  0  0  0  0  0  0  0  0  0  0  0
   -3.5736    1.2902    0.0000 O   0  0  0  0  0  0  0  0  0  0  0  0
   -4.6883    2.2939    0.0000 C   0  0  0  0  0  0  0  0  0  0  0  0
   -1.8351    3.2209    0.0000 C   0  0  0  0  0  0  0  0  0  0  0  0
   -2.9499    4.2246    0.0000 O   0  0  0  0  0  0  0  0  0  0  0  0
   -2.6380    5.6918    0.0000 C   0  0  0  0  0  0  0  0  0  0  0  0
  1  2  1  0
  2  3  1  0
  3  4  2  0
  4  5  1  0
  5  6  1  0
  6  7  2  0
  7  8  1  0
  8  9  1  0
  9 10  1  0
 10 11  1  0
 11 12  1  0
 12 13  1  0
 13 14  1  0
 14 15  2  0
 15 16  1  0
 16 17  2  0
 17 18  1  0
 18 19  1  0
 19 20  1  0
 20 21  2  0
 20 22  1  0
 22 23  1  0
 23 24  1  0
 24 25  1  0
 25 26  1  0
 26 27  1  0
 27 28  1  0
 28 29  2  0
 28 30  1  0
 30 31  1  0
 18 32  2  0
  8 33  1  0
 33 34  1  0
 34 35  1  0
 35 36  1  0
 34 37  2  0
 37 38  1  0
 38 39  1  0
 37  3  1  0
 33  5  2  0
 32 14  1  0
M  END
>  <molecule_chembl_id>  (440) 
CHEMBL4172420

>  <canonical_smiles>  (440) 
COc1cc2ccn(CCCCOc3cccc(NC(=O)CCCCCCC(=O)NO)c3)c2c(OC)c1OC

>  <pchembl_value_mean>  (440) 
6.0

>  <document_chembl_id>  (440) 
CHEMBL4138235

$$$$

     RDKit          2D

 43 47  0  0  0  0  0  0  0  0999 V2000
   16.5000   -5.1962    0.0000 N   0  0  0  0  0  0  0  0  0  0  0  0
   17.2500   -6.4952    0.0000 C   0  0  0  0  0  0  0  0  0  0  0  0
   18.7500   -6.4952    0.0000 C   0  0  0  0  0  0  0  0  0  0  0  0
   19.5000   -7.7942    0.0000 C   0  0  0  0  0  0  0  0  0  0  0  0
   18.7500   -9.0933    0.0000 C   0  0  0  0  0  0  0  0  0  0  0  0
   17.2500   -9.0933    0.0000 C   0  0  0  0  0  0  0  0  0  0  0  0
   16.5000   -7.7942    0.0000 C   0  0  0  0  0  0  0  0  0  0  0  0
   15.0000   -7.7942    0.0000 N   0  0  0  0  0  0  0  0  0  0  0  0
   14.2500   -6.4952    0.0000 C   0  0  0  0  0  0  0  0  0  0  0  0
   15.0000   -5.1962    0.0000 O   0  0  0  0  0  0  0  0  0  0  0  0
   12.7500   -6.4952    0.0000 C   0  0  0  0  0  0  0  0  0  0  0  0
   12.0000   -5.1962    0.0000 C   0  0  0  0  0  0  0  0  0  0  0  0
   10.5000   -5.1962    0.0000 C   0  0  0  0  0  0  0  0  0  0  0  0
    9.7500   -6.4952    0.0000 C   0  0  0  0  0  0  0  0  0  0  0  0
    8.2500   -6.4952    0.0000 N   0  0  0  0  0  0  0  0  0  0  0  0
    7.5000   -5.1962    0.0000 C   0  0  0  0  0  0  0  0  0  0  0  0
    8.2500   -3.8971    0.0000 O   0  0  0  0  0  0  0  0  0  0  0  0
    6.0000   -5.1962    0.0000 C   0  0  0  0  0  0  0  0  0  0  0  0
    5.2500   -3.8971    0.0000 C   0  0  0  0  0  0  0  0  0  0  0  0
    3.7500   -3.8971    0.0000 C   0  0  0  0  0  0  0  0  0  0  0  0
    3.0000   -2.5981    0.0000 C   0  0  0  0  0  0  0  0  0  0  0  0
    1.5000   -2.5981    0.0000 N   0  0  0  0  0  0  0  0  0  0  0  0
    0.7500   -1.2990    0.0000 C   0  0  0  0  0  0  0  0  0  0  0  0
    1.5000    0.0000    0.0000 C   0  0  0  0  0  0  0  0  0  0  0  0
    0.7500    1.2990    0.0000 C   0  0  0  0  0  0  0  0  0  0  0  0
   -0.7500    1.2990    0.0000 C   0  0  0  0  0  0  0  0  0  0  0  0
   -1.5000    0.0000    0.0000 C   0  0  0  0  0  0  0  0  0  0  0  0
   -0.7500   -1.2990    0.0000 C   0  0  0  0  0  0  0  0  0  0  0  0
   -1.7537   -2.4138    0.0000 C   0  0  0  0  0  0  0  0  0  0  0  0
   -1.4418   -3.8810    0.0000 O   0  0  0  0  0  0  0  0  0  0  0  0
   -3.1240   -1.8037    0.0000 N   0  0  0  0  0  0  0  0  0  0  0  0
   -4.4231   -2.5537    0.0000 C   0  0  0  0  0  0  0  0  0  0  0  0
   -5.7221   -1.8037    0.0000 C   0  0  0  0  0  0  0  0  0  0  0  0
   -7.0211   -2.5537    0.0000 C   0  0  0  0  0  0  0  0  0  0  0  0
   -7.0211   -4.0537    0.0000 C   0  0  0  0  0  0  0  0  0  0  0  0
   -8.3202   -4.8037    0.0000 O   0  0  0  0  0  0  0  0  0  0  0  0
   -5.7221   -4.8037    0.0000 N   0  0  0  0  0  0  0  0  0  0  0  0
   -4.4231   -4.0537    0.0000 C   0  0  0  0  0  0  0  0  0  0  0  0
   -3.1240   -4.8037    0.0000 O   0  0  0  0  0  0  0  0  0  0  0  0
   -2.9672   -0.3119    0.0000 C   0  0  0  0  0  0  0  0  0  0  0  0
   -4.0819    0.6918    0.0000 O   0  0  0  0  0  0  0  0  0  0  0  0
   10.5000   -7.7942    0.0000 C   0  0  0  0  0  0  0  0  0  0  0  0
   12.0000   -7.7942    0.0000 C   0  0  0  0  0  0  0  0  0  0  0  0
  1  2  1  0
  2  3  2  0
  3  4  1  0
  4  5  2  0
  5  6  1  0
  6  7  2  0
  7  8  1  0
  8  9  1  0
  9 10  2  0
  9 11  1  0
 11 12  2  0
 12 13  1  0
 13 14  2  0
 14 15  1  0
 15 16  1  0
 16 17  2  0
 16 18  1  0
 18 19  1  0
 19 20  1  0
 20 21  1  0
 21 22  1  0
 22 23  1  0
 23 24  2  0
 24 25  1  0
 25 26  2  0
 26 27  1  0
 27 28  2  0
 28 29  1  0
 29 30  2  0
 29 31  1  0
 31 32  1  0
 32 33  1  0
 33 34  1  0
 34 35  1  0
 35 36  2  0
 35 37  1  0
 37 38  1  0
 38 39  2  0
 31 40  1  0
 40 41  2  0
 14 42  1  0
 42 43  2  0
  7  2  1  0
 43 11  1  0
 28 23  1  0
 38 32  1  0
 40 27  1  0
M  END
>  <molecule_chembl_id>  (441) 
CHEMBL4763420

>  <canonical_smiles>  (441) 
Nc1ccccc1NC(=O)c1ccc(NC(=O)CCCCNc2cccc3c2C(=O)N(C2CCC(=O)NC2=O)C3=O)cc1

>  <pchembl_value_mean>  (441) 
6.0

>  <document_chembl_id>  (441) 
CHEMBL4706593

$$$$

     RDKit          2D

 25 26  0  0  0  0  0  0  0  0999 V2000
    3.7500   -1.2990    0.0000 C   0  0  0  0  0  0  0  0  0  0  0  0
    3.0000    0.0000    0.0000 O   0  0  0  0  0  0  0  0  0  0  0  0
    1.5000    0.0000    0.0000 C   0  0  0  0  0  0  0  0  0  0  0  0
    0.7500   -1.2990    0.0000 C   0  0  0  0  0  0  0  0  0  0  0  0
   -0.7500   -1.2990    0.0000 C   0  0  0  0  0  0  0  0  0  0  0  0
   -1.5000    0.0000    0.0000 C   0  0  0  0  0  0  0  0  0  0  0  0
   -3.0000    0.0000    0.0000 C   0  0  0  0  0  0  0  0  0  0  0  0
   -3.7500    1.2990    0.0000 N   0  0  0  0  0  0  0  0  0  0  0  0
   -5.2500    1.2990    0.0000 C   0  0  0  0  0  0  0  0  0  0  0  0
   -6.0000    2.5981    0.0000 C   0  0  0  0  0  0  0  0  0  0  0  0
   -5.2500    3.8971    0.0000 C   0  0  0  0  0  0  0  0  0  0  0  0
   -6.0000    5.1962    0.0000 C   0  0  0  0  0  0  0  0  0  0  0  0
   -7.5000    5.1962    0.0000 C   0  0  0  0  0  0  0  0  0  0  0  0
   -8.2500    6.4952    0.0000 C   0  0  0  0  0  0  0  0  0  0  0  0
   -7.5000    7.7942    0.0000 C   0  0  0  0  0  0  0  0  0  0  0  0
   -8.2500    9.0933    0.0000 C   0  0  0  0  0  0  0  0  0  0  0  0
   -9.7500    9.0933    0.0000 O   0  0  0  0  0  0  0  0  0  0  0  0
   -7.5000   10.3923    0.0000 N   0  0  0  0  0  0  0  0  0  0  0  0
   -8.2500   11.6913    0.0000 O   0  0  0  0  0  0  0  0  0  0  0  0
   -8.2500    3.8971    0.0000 C   0  0  0  0  0  0  0  0  0  0  0  0
   -7.5000    2.5981    0.0000 C   0  0  0  0  0  0  0  0  0  0  0  0
   -0.7500    1.2990    0.0000 C   0  0  0  0  0  0  0  0  0  0  0  0
   -1.5000    2.5981    0.0000 O   0  0  0  0  0  0  0  0  0  0  0  0
   -0.7500    3.8971    0.0000 C   0  0  0  0  0  0  0  0  0  0  0  0
    0.7500    1.2990    0.0000 C   0  0  0  0  0  0  0  0  0  0  0  0
  1  2  1  0
  2  3  1  0
  3  4  2  0
  4  5  1  0
  5  6  2  0
  6  7  1  0
  7  8  1  0
  8  9  1  0
  9 10  1  0
 10 11  2  0
 11 12  1  0
 12 13  2  0
 13 14  1  0
 14 15  2  3
 15 16  1  0
 16 17  2  0
 16 18  1  0
 18 19  1  0
 13 20  1  0
 20 21  2  0
  6 22  1  0
 22 23  1  0
 23 24  1  0
 22 25  2  0
 25  3  1  0
 21 10  1  0
M  END
>  <molecule_chembl_id>  (442) 
CHEMBL4571280

>  <canonical_smiles>  (442) 
COc1ccc(CNCc2ccc(C=CC(=O)NO)cc2)c(OC)c1

>  <pchembl_value_mean>  (442) 
6.0

>  <document_chembl_id>  (442) 
CHEMBL4385666

$$$$

     RDKit          2D

 22 24  0  0  0  0  0  0  0  0999 V2000
    3.7500    1.2990    0.0000 O   0  0  0  0  0  0  0  0  0  0  0  0
    3.0000    0.0000    0.0000 C   0  0  0  0  0  0  0  0  0  0  0  0
    3.7500   -1.2990    0.0000 N   0  0  0  0  0  0  0  0  0  0  0  0
    5.2500   -1.2990    0.0000 O   0  0  0  0  0  0  0  0  0  0  0  0
    1.5000    0.0000    0.0000 C   0  0  0  0  0  0  0  0  0  0  0  0
    0.7500   -1.2990    0.0000 C   0  0  0  0  0  0  0  0  0  0  0  0
   -0.7500   -1.2990    0.0000 N   0  0  0  0  0  0  0  0  0  0  0  0
   -1.5000    0.0000    0.0000 C   0  0  0  0  0  0  0  0  0  0  0  0
   -3.0000    0.0000    0.0000 N   0  0  0  0  0  0  0  0  0  0  0  0
   -3.7500    1.2990    0.0000 C   0  0  0  0  0  0  0  0  0  0  0  0
   -4.9635    0.4174    0.0000 C   0  0  0  0  0  0  0  0  0  0  0  0
   -4.8067   -1.0744    0.0000 C   0  0  0  0  0  0  0  0  0  0  0  0
   -6.0203   -1.9561    0.0000 C   0  0  0  0  0  0  0  0  0  0  0  0
   -7.3906   -1.3460    0.0000 C   0  0  0  0  0  0  0  0  0  0  0  0
   -7.5474    0.1458    0.0000 C   0  0  0  0  0  0  0  0  0  0  0  0
   -6.3338    1.0275    0.0000 C   0  0  0  0  0  0  0  0  0  0  0  0
   -4.7537    2.4138    0.0000 C   0  0  0  0  0  0  0  0  0  0  0  0
   -4.0037    3.7128    0.0000 C   0  0  0  0  0  0  0  0  0  0  0  0
   -2.5365    3.4009    0.0000 C   0  0  0  0  0  0  0  0  0  0  0  0
   -2.3797    1.9091    0.0000 C   0  0  0  0  0  0  0  0  0  0  0  0
   -0.7500    1.2990    0.0000 N   0  0  0  0  0  0  0  0  0  0  0  0
    0.7500    1.2990    0.0000 C   0  0  0  0  0  0  0  0  0  0  0  0
  1  2  2  0
  2  3  1  0
  3  4  1  0
  2  5  1  0
  5  6  2  0
  6  7  1  0
  7  8  2  0
  8  9  1  0
  9 10  1  0
 10 11  1  0
 11 12  2  0
 12 13  1  0
 13 14  2  0
 14 15  1  0
 15 16  2  0
 10 17  1  0
 17 18  1  0
 18 19  1  0
 19 20  1  0
  8 21  1  0
 21 22  2  0
 22  5  1  0
 20 10  1  0
 16 11  1  0
M  END
>  <molecule_chembl_id>  (443) 
CHEMBL3655965

>  <canonical_smiles>  (443) 
O=C(NO)c1cnc(NC2(c3ccccc3)CCCC2)nc1

>  <pchembl_value_mean>  (443) 
6.01

>  <document_chembl_id>  (443) 
CHEMBL3639071

$$$$

     RDKit          2D

 25 27  0  0  0  0  0  0  0  0999 V2000
   -7.5000   -5.1962    0.0000 O   0  0  0  0  0  0  0  0  0  0  0  0
   -6.0000   -5.1962    0.0000 C   0  0  0  0  0  0  0  0  0  0  0  0
   -5.2500   -6.4952    0.0000 N   0  0  0  0  0  0  0  0  0  0  0  0
   -6.0000   -7.7942    0.0000 O   0  0  0  0  0  0  0  0  0  0  0  0
   -5.2500   -3.8971    0.0000 C   0  0  0  0  0  0  0  0  0  0  0  0
   -3.7500   -3.8971    0.0000 C   0  0  0  0  0  0  0  0  0  0  0  0
   -3.0000   -2.5981    0.0000 N   0  0  0  0  0  0  0  0  0  0  0  0
   -3.7500   -1.2990    0.0000 C   0  0  0  0  0  0  0  0  0  0  0  0
   -3.0000    0.0000    0.0000 N   0  0  0  0  0  0  0  0  0  0  0  0
   -3.7500    1.2990    0.0000 C   0  0  0  0  0  0  0  0  0  0  0  0
   -2.3405    1.8121    0.0000 C   0  0  0  0  0  0  0  0  0  0  0  0
   -1.1914    0.8479    0.0000 C   0  0  0  0  0  0  0  0  0  0  0  0
    0.2181    1.3609    0.0000 C   0  0  0  0  0  0  0  0  0  0  0  0
    0.4786    2.8381    0.0000 C   0  0  0  0  0  0  0  0  0  0  0  0
   -0.6704    3.8023    0.0000 C   0  0  0  0  0  0  0  0  0  0  0  0
   -2.0800    3.2893    0.0000 C   0  0  0  0  0  0  0  0  0  0  0  0
   -4.8991    0.3349    0.0000 C   0  0  0  0  0  0  0  0  0  0  0  0
   -6.3086    0.8479    0.0000 C   0  0  0  0  0  0  0  0  0  0  0  0
   -6.5691    2.3251    0.0000 C   0  0  0  0  0  0  0  0  0  0  0  0
   -7.3191    3.6241    0.0000 F   0  0  0  0  0  0  0  0  0  0  0  0
   -7.9786    1.8121    0.0000 F   0  0  0  0  0  0  0  0  0  0  0  0
   -5.4200    3.2893    0.0000 C   0  0  0  0  0  0  0  0  0  0  0  0
   -4.0105    2.7762    0.0000 C   0  0  0  0  0  0  0  0  0  0  0  0
   -5.2500   -1.2990    0.0000 N   0  0  0  0  0  0  0  0  0  0  0  0
   -6.0000   -2.5981    0.0000 C   0  0  0  0  0  0  0  0  0  0  0  0
  1  2  2  0
  2  3  1  0
  3  4  1  0
  2  5  1  0
  5  6  2  0
  6  7  1  0
  7  8  2  0
  8  9  1  0
  9 10  1  0
 10 11  1  0
 11 12  2  0
 12 13  1  0
 13 14  2  0
 14 15  1  0
 15 16  2  0
 10 17  1  0
 17 18  1  0
 18 19  1  0
 19 20  1  0
 19 21  1  0
 19 22  1  0
 22 23  1  0
  8 24  1  0
 24 25  2  0
 25  5  1  0
 23 10  1  0
 16 11  1  0
M  END
>  <molecule_chembl_id>  (444) 
CHEMBL3935992

>  <canonical_smiles>  (444) 
O=C(NO)c1cnc(NC2(c3ccccc3)CCC(F)(F)CC2)nc1

>  <pchembl_value_mean>  (444) 
6.01

>  <document_chembl_id>  (444) 
CHEMBL3886954

$$$$

     RDKit          2D

 21 22  0  0  0  0  0  0  0  0999 V2000
    2.0490   -4.6471    0.0000 C   0  0  0  0  0  0  0  0  0  0  0  0
    0.7500   -3.8971    0.0000 C   0  0  0  0  0  0  0  0  0  0  0  0
   -0.5490   -3.1471    0.0000 C   0  0  0  0  0  0  0  0  0  0  0  0
    1.5000   -2.5981    0.0000 N   0  0  0  0  0  0  0  0  0  0  0  0
    0.7500   -1.2990    0.0000 C   0  0  0  0  0  0  0  0  0  0  0  0
    1.5000    0.0000    0.0000 N   0  0  0  0  0  0  0  0  0  0  0  0
    0.7500    1.2990    0.0000 C   0  0  0  0  0  0  0  0  0  0  0  0
   -0.7500    1.2990    0.0000 C   0  0  0  0  0  0  0  0  0  0  0  0
   -1.5000    2.5981    0.0000 C   0  0  0  0  0  0  0  0  0  0  0  0
   -3.0000    2.5981    0.0000 O   0  0  0  0  0  0  0  0  0  0  0  0
   -0.7500    3.8971    0.0000 N   0  0  0  0  0  0  0  0  0  0  0  0
   -1.5000    5.1962    0.0000 O   0  0  0  0  0  0  0  0  0  0  0  0
   -1.5000    0.0000    0.0000 C   0  0  0  0  0  0  0  0  0  0  0  0
   -0.7500   -1.2990    0.0000 N   0  0  0  0  0  0  0  0  0  0  0  0
   -0.0000   -5.1962    0.0000 C   0  0  0  0  0  0  0  0  0  0  0  0
   -1.5000   -5.1962    0.0000 C   0  0  0  0  0  0  0  0  0  0  0  0
   -2.2500   -6.4952    0.0000 C   0  0  0  0  0  0  0  0  0  0  0  0
   -1.5000   -7.7942    0.0000 C   0  0  0  0  0  0  0  0  0  0  0  0
   -0.0000   -7.7942    0.0000 C   0  0  0  0  0  0  0  0  0  0  0  0
    0.7500   -9.0933    0.0000 F   0  0  0  0  0  0  0  0  0  0  0  0
    0.7500   -6.4952    0.0000 C   0  0  0  0  0  0  0  0  0  0  0  0
  1  2  1  0
  2  3  1  0
  2  4  1  0
  4  5  1  0
  5  6  2  0
  6  7  1  0
  7  8  2  0
  8  9  1  0
  9 10  2  0
  9 11  1  0
 11 12  1  0
  8 13  1  0
 13 14  2  0
  2 15  1  0
 15 16  2  0
 16 17  1  0
 17 18  2  0
 18 19  1  0
 19 20  1  0
 19 21  2  0
 14  5  1  0
 21 15  1  0
M  END
>  <molecule_chembl_id>  (445) 
CHEMBL3655952

>  <canonical_smiles>  (445) 
CC(C)(Nc1ncc(C(=O)NO)cn1)c1cccc(F)c1

>  <pchembl_value_mean>  (445) 
6.01

>  <document_chembl_id>  (445) 
CHEMBL3639071

$$$$

     RDKit          2D

 22 23  0  0  0  0  0  0  0  0999 V2000
    2.0490   -4.6471    0.0000 C   0  0  0  0  0  0  0  0  0  0  0  0
    0.7500   -3.8971    0.0000 C   0  0  0  0  0  0  0  0  0  0  0  0
   -0.5490   -3.1471    0.0000 C   0  0  0  0  0  0  0  0  0  0  0  0
    1.5000   -2.5981    0.0000 N   0  0  0  0  0  0  0  0  0  0  0  0
    0.7500   -1.2990    0.0000 C   0  0  0  0  0  0  0  0  0  0  0  0
    1.5000    0.0000    0.0000 N   0  0  0  0  0  0  0  0  0  0  0  0
    0.7500    1.2990    0.0000 C   0  0  0  0  0  0  0  0  0  0  0  0
   -0.7500    1.2990    0.0000 C   0  0  0  0  0  0  0  0  0  0  0  0
   -1.5000    2.5981    0.0000 C   0  0  0  0  0  0  0  0  0  0  0  0
   -3.0000    2.5981    0.0000 O   0  0  0  0  0  0  0  0  0  0  0  0
   -0.7500    3.8971    0.0000 N   0  0  0  0  0  0  0  0  0  0  0  0
   -1.5000    5.1962    0.0000 O   0  0  0  0  0  0  0  0  0  0  0  0
   -1.5000    0.0000    0.0000 C   0  0  0  0  0  0  0  0  0  0  0  0
   -0.7500   -1.2990    0.0000 N   0  0  0  0  0  0  0  0  0  0  0  0
   -0.0000   -5.1962    0.0000 C   0  0  0  0  0  0  0  0  0  0  0  0
   -1.5000   -5.1962    0.0000 C   0  0  0  0  0  0  0  0  0  0  0  0
   -2.2500   -6.4952    0.0000 C   0  0  0  0  0  0  0  0  0  0  0  0
   -1.5000   -7.7942    0.0000 C   0  0  0  0  0  0  0  0  0  0  0  0
   -2.2500   -9.0933    0.0000 F   0  0  0  0  0  0  0  0  0  0  0  0
   -0.0000   -7.7942    0.0000 C   0  0  0  0  0  0  0  0  0  0  0  0
    0.7500   -6.4952    0.0000 C   0  0  0  0  0  0  0  0  0  0  0  0
    2.2500   -6.4952    0.0000 F   0  0  0  0  0  0  0  0  0  0  0  0
  1  2  1  0
  2  3  1  0
  2  4  1  0
  4  5  1  0
  5  6  2  0
  6  7  1  0
  7  8  2  0
  8  9  1  0
  9 10  2  0
  9 11  1  0
 11 12  1  0
  8 13  1  0
 13 14  2  0
  2 15  1  0
 15 16  2  0
 16 17  1  0
 17 18  2  0
 18 19  1  0
 18 20  1  0
 20 21  2  0
 21 22  1  0
 14  5  1  0
 21 15  1  0
M  END
>  <molecule_chembl_id>  (446) 
CHEMBL3655947

>  <canonical_smiles>  (446) 
CC(C)(Nc1ncc(C(=O)NO)cn1)c1ccc(F)cc1F

>  <pchembl_value_mean>  (446) 
6.01

>  <document_chembl_id>  (446) 
CHEMBL3639071

$$$$

     RDKit          2D

 33 36  0  0  0  0  0  0  0  0999 V2000
   -7.5000   -5.1962    0.0000 O   0  0  0  0  0  0  0  0  0  0  0  0
   -6.0000   -5.1962    0.0000 C   0  0  0  0  0  0  0  0  0  0  0  0
   -5.2500   -6.4952    0.0000 N   0  0  0  0  0  0  0  0  0  0  0  0
   -6.0000   -7.7942    0.0000 O   0  0  0  0  0  0  0  0  0  0  0  0
   -5.2500   -3.8971    0.0000 C   0  0  0  0  0  0  0  0  0  0  0  0
   -3.7500   -3.8971    0.0000 C   0  0  0  0  0  0  0  0  0  0  0  0
   -3.0000   -2.5981    0.0000 N   0  0  0  0  0  0  0  0  0  0  0  0
   -3.7500   -1.2990    0.0000 C   0  0  0  0  0  0  0  0  0  0  0  0
   -3.0000    0.0000    0.0000 N   0  0  0  0  0  0  0  0  0  0  0  0
   -3.7500    1.2990    0.0000 C   0  0  0  0  0  0  0  0  0  0  0  0
   -2.3405    1.8121    0.0000 C   0  0  0  0  0  0  0  0  0  0  0  0
   -1.1914    0.8479    0.0000 C   0  0  0  0  0  0  0  0  0  0  0  0
    0.2181    1.3609    0.0000 C   0  0  0  0  0  0  0  0  0  0  0  0
    0.4786    2.8381    0.0000 C   0  0  0  0  0  0  0  0  0  0  0  0
   -0.6704    3.8023    0.0000 C   0  0  0  0  0  0  0  0  0  0  0  0
   -2.0800    3.2893    0.0000 C   0  0  0  0  0  0  0  0  0  0  0  0
   -4.8991    0.3349    0.0000 C   0  0  0  0  0  0  0  0  0  0  0  0
   -6.3086    0.8479    0.0000 C   0  0  0  0  0  0  0  0  0  0  0  0
   -6.5691    2.3251    0.0000 N   0  0  0  0  0  0  0  0  0  0  0  0
   -7.9786    2.8381    0.0000 S   0  0  0  0  0  0  0  0  0  0  0  0
   -8.4916    1.4286    0.0000 O   0  0  0  0  0  0  0  0  0  0  0  0
   -7.4656    4.2477    0.0000 O   0  0  0  0  0  0  0  0  0  0  0  0
   -9.3882    3.3512    0.0000 C   0  0  0  0  0  0  0  0  0  0  0  0
   -9.6486    4.8284    0.0000 C   0  0  0  0  0  0  0  0  0  0  0  0
  -11.0582    5.3414    0.0000 C   0  0  0  0  0  0  0  0  0  0  0  0
  -12.2072    4.3772    0.0000 C   0  0  0  0  0  0  0  0  0  0  0  0
  -13.6168    4.8902    0.0000 Cl  0  0  0  0  0  0  0  0  0  0  0  0
  -11.9468    2.9000    0.0000 C   0  0  0  0  0  0  0  0  0  0  0  0
  -10.5372    2.3870    0.0000 C   0  0  0  0  0  0  0  0  0  0  0  0
   -5.4200    3.2893    0.0000 C   0  0  0  0  0  0  0  0  0  0  0  0
   -4.0105    2.7762    0.0000 C   0  0  0  0  0  0  0  0  0  0  0  0
   -5.2500   -1.2990    0.0000 N   0  0  0  0  0  0  0  0  0  0  0  0
   -6.0000   -2.5981    0.0000 C   0  0  0  0  0  0  0  0  0  0  0  0
  1  2  2  0
  2  3  1  0
  3  4  1  0
  2  5  1  0
  5  6  2  0
  6  7  1  0
  7  8  2  0
  8  9  1  0
  9 10  1  0
 10 11  1  0
 11 12  2  0
 12 13  1  0
 13 14  2  0
 14 15  1  0
 15 16  2  0
 10 17  1  0
 17 18  1  0
 18 19  1  0
 19 20  1  0
 20 21  2  0
 20 22  2  0
 20 23  1  0
 23 24  2  0
 24 25  1  0
 25 26  2  0
 26 27  1  0
 26 28  1  0
 28 29  2  0
 19 30  1  0
 30 31  1  0
  8 32  1  0
 32 33  2  0
 33  5  1  0
 31 10  1  0
 16 11  1  0
 29 23  1  0
M  END
>  <molecule_chembl_id>  (447) 
CHEMBL3892568

>  <canonical_smiles>  (447) 
O=C(NO)c1cnc(NC2(c3ccccc3)CCN(S(=O)(=O)c3ccc(Cl)cc3)CC2)nc1

>  <pchembl_value_mean>  (447) 
6.01

>  <document_chembl_id>  (447) 
CHEMBL3886590

$$$$

     RDKit          2D

 29 32  0  0  0  0  0  0  0  0999 V2000
   -7.7942  -12.6073    0.0000 N   0  0  0  0  0  0  0  0  0  0  0  0
   -9.0933  -11.8573    0.0000 C   0  0  0  0  0  0  0  0  0  0  0  0
  -10.3923  -12.6073    0.0000 C   0  0  0  0  0  0  0  0  0  0  0  0
  -11.6913  -11.8573    0.0000 N   0  0  0  0  0  0  0  0  0  0  0  0
  -11.6913  -10.3573    0.0000 C   0  0  0  0  0  0  0  0  0  0  0  0
  -10.3923   -9.6073    0.0000 C   0  0  0  0  0  0  0  0  0  0  0  0
   -9.0933  -10.3573    0.0000 C   0  0  0  0  0  0  0  0  0  0  0  0
   -7.7942   -9.6073    0.0000 N   0  0  0  0  0  0  0  0  0  0  0  0
   -6.4952  -10.3573    0.0000 C   0  0  0  0  0  0  0  0  0  0  0  0
   -6.4952  -11.8573    0.0000 O   0  0  0  0  0  0  0  0  0  0  0  0
   -5.1962   -9.6073    0.0000 C   0  0  0  0  0  0  0  0  0  0  0  0
   -3.8971  -10.3573    0.0000 C   0  0  0  0  0  0  0  0  0  0  0  0
   -2.5981   -9.6073    0.0000 C   0  0  0  0  0  0  0  0  0  0  0  0
   -2.5981   -8.1073    0.0000 C   0  0  0  0  0  0  0  0  0  0  0  0
   -1.2990   -7.3573    0.0000 C   0  0  0  0  0  0  0  0  0  0  0  0
   -1.2990   -5.8573    0.0000 N   0  0  0  0  0  0  0  0  0  0  0  0
   -0.0000   -5.1073    0.0000 C   0  0  0  0  0  0  0  0  0  0  0  0
    1.2990   -5.8573    0.0000 O   0  0  0  0  0  0  0  0  0  0  0  0
   -0.0000   -3.6073    0.0000 C   0  0  0  0  0  0  0  0  0  0  0  0
    1.2135   -2.7256    0.0000 C   0  0  0  0  0  0  0  0  0  0  0  0
    0.7500   -1.2990    0.0000 C   0  0  0  0  0  0  0  0  0  0  0  0
    1.5000    0.0000    0.0000 C   0  0  0  0  0  0  0  0  0  0  0  0
    0.7500    1.2990    0.0000 C   0  0  0  0  0  0  0  0  0  0  0  0
   -0.7500    1.2990    0.0000 C   0  0  0  0  0  0  0  0  0  0  0  0
   -1.5000    0.0000    0.0000 C   0  0  0  0  0  0  0  0  0  0  0  0
   -0.7500   -1.2990    0.0000 C   0  0  0  0  0  0  0  0  0  0  0  0
   -1.2135   -2.7256    0.0000 S   0  0  0  0  0  0  0  0  0  0  0  0
   -3.8971   -7.3573    0.0000 C   0  0  0  0  0  0  0  0  0  0  0  0
   -5.1962   -8.1073    0.0000 C   0  0  0  0  0  0  0  0  0  0  0  0
  1  2  1  0
  2  3  2  0
  3  4  1  0
  4  5  2  0
  5  6  1  0
  6  7  2  0
  7  8  1  0
  8  9  1  0
  9 10  2  0
  9 11  1  0
 11 12  2  0
 12 13  1  0
 13 14  2  0
 14 15  1  0
 15 16  1  0
 16 17  1  0
 17 18  2  0
 17 19  1  0
 19 20  2  0
 20 21  1  0
 21 22  2  0
 22 23  1  0
 23 24  2  0
 24 25  1  0
 25 26  2  0
 26 27  1  0
 14 28  1  0
 28 29  2  0
  7  2  1  0
 29 11  1  0
 27 19  1  0
 26 21  1  0
M  END
>  <molecule_chembl_id>  (448) 
CHEMBL3673115

>  <canonical_smiles>  (448) 
Nc1cnccc1NC(=O)c1ccc(CNC(=O)c2cc3ccccc3s2)cc1

>  <pchembl_value_mean>  (448) 
6.01

>  <document_chembl_id>  (448) 
CHEMBL3638911

$$$$

     RDKit          2D

 33 36  0  0  0  0  0  0  0  0999 V2000
   -7.5000   -5.1962    0.0000 O   0  0  0  0  0  0  0  0  0  0  0  0
   -6.0000   -5.1962    0.0000 C   0  0  0  0  0  0  0  0  0  0  0  0
   -5.2500   -6.4952    0.0000 N   0  0  0  0  0  0  0  0  0  0  0  0
   -6.0000   -7.7942    0.0000 O   0  0  0  0  0  0  0  0  0  0  0  0
   -5.2500   -3.8971    0.0000 C   0  0  0  0  0  0  0  0  0  0  0  0
   -3.7500   -3.8971    0.0000 C   0  0  0  0  0  0  0  0  0  0  0  0
   -3.0000   -2.5981    0.0000 N   0  0  0  0  0  0  0  0  0  0  0  0
   -3.7500   -1.2990    0.0000 C   0  0  0  0  0  0  0  0  0  0  0  0
   -3.0000    0.0000    0.0000 N   0  0  0  0  0  0  0  0  0  0  0  0
   -3.7500    1.2990    0.0000 C   0  0  0  0  0  0  0  0  0  0  0  0
   -2.3405    1.8121    0.0000 C   0  0  0  0  0  0  0  0  0  0  0  0
   -1.1914    0.8479    0.0000 C   0  0  0  0  0  0  0  0  0  0  0  0
    0.2181    1.3609    0.0000 C   0  0  0  0  0  0  0  0  0  0  0  0
    0.4786    2.8381    0.0000 C   0  0  0  0  0  0  0  0  0  0  0  0
   -0.6704    3.8023    0.0000 C   0  0  0  0  0  0  0  0  0  0  0  0
   -2.0800    3.2893    0.0000 C   0  0  0  0  0  0  0  0  0  0  0  0
   -4.8991    0.3349    0.0000 C   0  0  0  0  0  0  0  0  0  0  0  0
   -6.3086    0.8479    0.0000 C   0  0  0  0  0  0  0  0  0  0  0  0
   -6.5691    2.3251    0.0000 N   0  0  0  0  0  0  0  0  0  0  0  0
   -7.9786    2.8381    0.0000 C   0  0  0  0  0  0  0  0  0  0  0  0
   -9.1277    1.8739    0.0000 O   0  0  0  0  0  0  0  0  0  0  0  0
   -8.2391    4.3153    0.0000 O   0  0  0  0  0  0  0  0  0  0  0  0
   -9.6486    4.8284    0.0000 C   0  0  0  0  0  0  0  0  0  0  0  0
   -9.9091    6.3056    0.0000 C   0  0  0  0  0  0  0  0  0  0  0  0
   -8.7600    7.2698    0.0000 C   0  0  0  0  0  0  0  0  0  0  0  0
   -9.0205    8.7470    0.0000 C   0  0  0  0  0  0  0  0  0  0  0  0
  -10.4300    9.2600    0.0000 C   0  0  0  0  0  0  0  0  0  0  0  0
  -11.5791    8.2958    0.0000 C   0  0  0  0  0  0  0  0  0  0  0  0
  -11.3186    6.8186    0.0000 C   0  0  0  0  0  0  0  0  0  0  0  0
   -5.4200    3.2893    0.0000 C   0  0  0  0  0  0  0  0  0  0  0  0
   -4.0105    2.7762    0.0000 C   0  0  0  0  0  0  0  0  0  0  0  0
   -5.2500   -1.2990    0.0000 N   0  0  0  0  0  0  0  0  0  0  0  0
   -6.0000   -2.5981    0.0000 C   0  0  0  0  0  0  0  0  0  0  0  0
  1  2  2  0
  2  3  1  0
  3  4  1  0
  2  5  1  0
  5  6  2  0
  6  7  1  0
  7  8  2  0
  8  9  1  0
  9 10  1  0
 10 11  1  0
 11 12  2  0
 12 13  1  0
 13 14  2  0
 14 15  1  0
 15 16  2  0
 10 17  1  0
 17 18  1  0
 18 19  1  0
 19 20  1  0
 20 21  2  0
 20 22  1  0
 22 23  1  0
 23 24  1  0
 24 25  2  0
 25 26  1  0
 26 27  2  0
 27 28  1  0
 28 29  2  0
 19 30  1  0
 30 31  1  0
  8 32  1  0
 32 33  2  0
 33  5  1  0
 31 10  1  0
 16 11  1  0
 29 24  1  0
M  END
>  <molecule_chembl_id>  (449) 
CHEMBL3906837

>  <canonical_smiles>  (449) 
O=C(NO)c1cnc(NC2(c3ccccc3)CCN(C(=O)OCc3ccccc3)CC2)nc1

>  <pchembl_value_mean>  (449) 
6.01

>  <document_chembl_id>  (449) 
CHEMBL3886590

$$$$

     RDKit          2D

 31 32  0  0  0  0  0  0  0  0999 V2000
    3.0000  -12.9904    0.0000 O   0  0  0  0  0  0  0  0  0  0  0  0
    1.5000  -12.9904    0.0000 C   0  0  0  0  0  0  0  0  0  0  0  0
    0.7500  -11.6913    0.0000 C   0  0  0  0  0  0  0  0  0  0  0  0
    1.5000  -10.3923    0.0000 C   0  0  0  0  0  0  0  0  0  0  0  0
    0.7500   -9.0933    0.0000 C   0  0  0  0  0  0  0  0  0  0  0  0
    1.5000   -7.7942    0.0000 C   0  0  0  0  0  0  0  0  0  0  0  0
    0.7500   -6.4952    0.0000 C   0  0  0  0  0  0  0  0  0  0  0  0
    1.5000   -5.1962    0.0000 C   0  0  0  0  0  0  0  0  0  0  0  0
    0.7500   -3.8971    0.0000 N   0  0  0  0  0  0  0  0  0  0  0  0
    1.5000   -2.5981    0.0000 C   0  0  0  0  0  0  0  0  0  0  0  0
    3.0000   -2.5981    0.0000 O   0  0  0  0  0  0  0  0  0  0  0  0
    0.7500   -1.2990    0.0000 C   0  0  0  0  0  0  0  0  0  0  0  0
    1.5000    0.0000    0.0000 C   0  0  0  0  0  0  0  0  0  0  0  0
    0.7500    1.2990    0.0000 C   0  0  0  0  0  0  0  0  0  0  0  0
   -0.7500    1.2990    0.0000 C   0  0  0  0  0  0  0  0  0  0  0  0
   -1.5000    0.0000    0.0000 C   0  0  0  0  0  0  0  0  0  0  0  0
   -3.0000    0.0000    0.0000 O   0  0  0  0  0  0  0  0  0  0  0  0
   -0.7500   -1.2990    0.0000 N   0  0  0  0  0  0  0  0  0  0  0  0
    3.0000   -5.1962    0.0000 C   0  0  0  0  0  0  0  0  0  0  0  0
    3.7500   -3.8971    0.0000 O   0  0  0  0  0  0  0  0  0  0  0  0
    3.7500   -6.4952    0.0000 N   0  0  0  0  0  0  0  0  0  0  0  0
    5.2500   -6.4952    0.0000 C   0  0  0  0  0  0  0  0  0  0  0  0
    6.0000   -7.7942    0.0000 C   0  0  0  0  0  0  0  0  0  0  0  0
    7.5000   -7.7942    0.0000 C   0  0  0  0  0  0  0  0  0  0  0  0
    8.2500   -9.0933    0.0000 C   0  0  0  0  0  0  0  0  0  0  0  0
    9.7500   -9.0933    0.0000 C   0  0  0  0  0  0  0  0  0  0  0  0
   10.5000   -7.7942    0.0000 C   0  0  0  0  0  0  0  0  0  0  0  0
    9.7500   -6.4952    0.0000 C   0  0  0  0  0  0  0  0  0  0  0  0
    8.2500   -6.4952    0.0000 C   0  0  0  0  0  0  0  0  0  0  0  0
    0.7500  -14.2894    0.0000 N   0  0  0  0  0  0  0  0  0  0  0  0
    1.5000  -15.5885    0.0000 O   0  0  0  0  0  0  0  0  0  0  0  0
  1  2  2  0
  2  3  1  0
  3  4  1  0
  4  5  1  0
  5  6  1  0
  6  7  1  0
  7  8  1  0
  8  9  1  0
  9 10  1  0
 10 11  2  0
 10 12  1  0
 12 13  1  0
 13 14  1  0
 14 15  1  0
 15 16  1  0
 16 17  2  0
 16 18  1  0
  8 19  1  0
 19 20  2  0
 19 21  1  0
 21 22  1  0
 22 23  1  0
 23 24  1  0
 24 25  2  0
 25 26  1  0
 26 27  2  0
 27 28  1  0
 28 29  2  0
  2 30  1  0
 30 31  1  0
 18 12  1  0
 29 24  1  0
M  END
>  <molecule_chembl_id>  (450) 
CHEMBL3098687

>  <canonical_smiles>  (450) 
O=C(CCCCCC(NC(=O)C1CCCC(=O)N1)C(=O)NCCc1ccccc1)NO

>  <pchembl_value_mean>  (450) 
6.02

>  <document_chembl_id>  (450) 
CHEMBL3098008

$$$$

     RDKit          2D

 25 26  0  0  0  0  0  0  0  0999 V2000
    3.7500   -1.2990    0.0000 C   0  0  0  0  0  0  0  0  0  0  0  0
    3.0000    0.0000    0.0000 O   0  0  0  0  0  0  0  0  0  0  0  0
    1.5000    0.0000    0.0000 C   0  0  0  0  0  0  0  0  0  0  0  0
    0.7500   -1.2990    0.0000 C   0  0  0  0  0  0  0  0  0  0  0  0
   -0.7500   -1.2990    0.0000 C   0  0  0  0  0  0  0  0  0  0  0  0
   -1.5000    0.0000    0.0000 C   0  0  0  0  0  0  0  0  0  0  0  0
   -0.7500    1.2990    0.0000 C   0  0  0  0  0  0  0  0  0  0  0  0
   -1.5000    2.5981    0.0000 C   0  0  0  0  0  0  0  0  0  0  0  0
   -0.7500    3.8971    0.0000 N   0  0  0  0  0  0  0  0  0  0  0  0
   -1.5000    5.1962    0.0000 C   0  0  0  0  0  0  0  0  0  0  0  0
   -0.7500    6.4952    0.0000 C   0  0  0  0  0  0  0  0  0  0  0  0
    0.7500    6.4952    0.0000 C   0  0  0  0  0  0  0  0  0  0  0  0
    1.5000    7.7942    0.0000 C   0  0  0  0  0  0  0  0  0  0  0  0
    0.7500    9.0933    0.0000 C   0  0  0  0  0  0  0  0  0  0  0  0
    1.5000   10.3923    0.0000 C   0  0  0  0  0  0  0  0  0  0  0  0
    3.0000   10.3923    0.0000 C   0  0  0  0  0  0  0  0  0  0  0  0
    3.7500   11.6913    0.0000 C   0  0  0  0  0  0  0  0  0  0  0  0
    3.0000   12.9904    0.0000 O   0  0  0  0  0  0  0  0  0  0  0  0
    5.2500   11.6913    0.0000 N   0  0  0  0  0  0  0  0  0  0  0  0
    6.0000   12.9904    0.0000 O   0  0  0  0  0  0  0  0  0  0  0  0
   -0.7500    9.0933    0.0000 C   0  0  0  0  0  0  0  0  0  0  0  0
   -1.5000    7.7942    0.0000 C   0  0  0  0  0  0  0  0  0  0  0  0
    0.7500    1.2990    0.0000 C   0  0  0  0  0  0  0  0  0  0  0  0
    1.5000    2.5981    0.0000 O   0  0  0  0  0  0  0  0  0  0  0  0
    3.0000    2.5981    0.0000 C   0  0  0  0  0  0  0  0  0  0  0  0
  1  2  1  0
  2  3  1  0
  3  4  2  0
  4  5  1  0
  5  6  2  0
  6  7  1  0
  7  8  1  0
  8  9  1  0
  9 10  1  0
 10 11  1  0
 11 12  2  0
 12 13  1  0
 13 14  2  0
 14 15  1  0
 15 16  2  3
 16 17  1  0
 17 18  2  0
 17 19  1  0
 19 20  1  0
 14 21  1  0
 21 22  2  0
  7 23  2  0
 23 24  1  0
 24 25  1  0
 23  3  1  0
 22 11  1  0
M  END
>  <molecule_chembl_id>  (451) 
CHEMBL4516302

>  <canonical_smiles>  (451) 
COc1cccc(CNCc2ccc(C=CC(=O)NO)cc2)c1OC

>  <pchembl_value_mean>  (451) 
6.02

>  <document_chembl_id>  (451) 
CHEMBL4385666

$$$$

     RDKit          2D

 25 27  0  0  0  0  0  0  0  0999 V2000
    3.7500    1.2990    0.0000 O   0  0  0  0  0  0  0  0  0  0  0  0
    3.0000    0.0000    0.0000 C   0  0  0  0  0  0  0  0  0  0  0  0
    3.7500   -1.2990    0.0000 N   0  0  0  0  0  0  0  0  0  0  0  0
    5.2500   -1.2990    0.0000 O   0  0  0  0  0  0  0  0  0  0  0  0
    1.5000    0.0000    0.0000 C   0  0  0  0  0  0  0  0  0  0  0  0
    0.7500   -1.2990    0.0000 C   0  0  0  0  0  0  0  0  0  0  0  0
   -0.7500   -1.2990    0.0000 C   0  0  0  0  0  0  0  0  0  0  0  0
   -1.5000    0.0000    0.0000 C   0  0  0  0  0  0  0  0  0  0  0  0
   -3.0000    0.0000    0.0000 C   0  0  0  0  0  0  0  0  0  0  0  0
   -3.7500    1.2990    0.0000 C   0  0  0  0  0  0  0  0  0  0  0  0
   -5.2500    1.2990    0.0000 C   0  0  0  0  0  0  0  0  0  0  0  0
   -6.0000    2.5981    0.0000 C   0  0  0  0  0  0  0  0  0  0  0  0
   -7.5000    2.5981    0.0000 C   0  0  0  0  0  0  0  0  0  0  0  0
   -8.2500    1.2990    0.0000 N   0  0  0  0  0  0  0  0  0  0  0  0
   -7.5000    0.0000    0.0000 C   0  0  0  0  0  0  0  0  0  0  0  0
   -8.2500   -1.2990    0.0000 C   0  0  0  0  0  0  0  0  0  0  0  0
   -9.7500   -1.2990    0.0000 C   0  0  0  0  0  0  0  0  0  0  0  0
  -10.5000   -2.5981    0.0000 C   0  0  0  0  0  0  0  0  0  0  0  0
   -9.7500   -3.8971    0.0000 C   0  0  0  0  0  0  0  0  0  0  0  0
   -8.2500   -3.8971    0.0000 C   0  0  0  0  0  0  0  0  0  0  0  0
   -7.5000   -2.5981    0.0000 C   0  0  0  0  0  0  0  0  0  0  0  0
   -6.0000   -2.5981    0.0000 O   0  0  0  0  0  0  0  0  0  0  0  0
   -6.0000    0.0000    0.0000 C   0  0  0  0  0  0  0  0  0  0  0  0
   -0.7500    1.2990    0.0000 C   0  0  0  0  0  0  0  0  0  0  0  0
    0.7500    1.2990    0.0000 C   0  0  0  0  0  0  0  0  0  0  0  0
  1  2  2  0
  2  3  1  0
  3  4  1  0
  2  5  1  0
  5  6  2  0
  6  7  1  0
  7  8  2  0
  8  9  1  0
  9 10  2  3
 10 11  1  0
 11 12  2  0
 12 13  1  0
 13 14  2  0
 14 15  1  0
 15 16  1  0
 16 17  2  0
 17 18  1  0
 18 19  2  0
 19 20  1  0
 20 21  2  0
 21 22  1  0
 15 23  2  0
  8 24  1  0
 24 25  2  0
 25  5  1  0
 23 11  1  0
 21 16  1  0
M  END
>  <molecule_chembl_id>  (452) 
CHEMBL5075646

>  <canonical_smiles>  (452) 
O=C(NO)c1ccc(C=Cc2ccnc(-c3ccccc3O)c2)cc1

>  <pchembl_value_mean>  (452) 
6.03

>  <document_chembl_id>  (452) 
CHEMBL5038581

$$$$

     RDKit          2D

 23 24  0  0  0  0  0  0  0  0999 V2000
    3.7500   -1.2990    0.0000 C   0  0  0  0  0  0  0  0  0  0  0  0
    3.0000    0.0000    0.0000 O   0  0  0  0  0  0  0  0  0  0  0  0
    1.5000    0.0000    0.0000 C   0  0  0  0  0  0  0  0  0  0  0  0
    0.7500   -1.2990    0.0000 C   0  0  0  0  0  0  0  0  0  0  0  0
   -0.7500   -1.2990    0.0000 C   0  0  0  0  0  0  0  0  0  0  0  0
   -1.5000    0.0000    0.0000 C   0  0  0  0  0  0  0  0  0  0  0  0
   -3.0000    0.0000    0.0000 C   0  0  0  0  0  0  0  0  0  0  0  0
   -3.7500    1.2990    0.0000 N   0  0  0  0  0  0  0  0  0  0  0  0
   -5.2500    1.2990    0.0000 C   0  0  0  0  0  0  0  0  0  0  0  0
   -6.0000    2.5981    0.0000 C   0  0  0  0  0  0  0  0  0  0  0  0
   -5.2500    3.8971    0.0000 C   0  0  0  0  0  0  0  0  0  0  0  0
   -6.0000    5.1962    0.0000 C   0  0  0  0  0  0  0  0  0  0  0  0
   -7.5000    5.1962    0.0000 C   0  0  0  0  0  0  0  0  0  0  0  0
   -8.2500    6.4952    0.0000 C   0  0  0  0  0  0  0  0  0  0  0  0
   -7.5000    7.7942    0.0000 C   0  0  0  0  0  0  0  0  0  0  0  0
   -8.2500    9.0933    0.0000 C   0  0  0  0  0  0  0  0  0  0  0  0
   -9.7500    9.0933    0.0000 O   0  0  0  0  0  0  0  0  0  0  0  0
   -7.5000   10.3923    0.0000 N   0  0  0  0  0  0  0  0  0  0  0  0
   -8.2500   11.6913    0.0000 O   0  0  0  0  0  0  0  0  0  0  0  0
   -8.2500    3.8971    0.0000 C   0  0  0  0  0  0  0  0  0  0  0  0
   -7.5000    2.5981    0.0000 C   0  0  0  0  0  0  0  0  0  0  0  0
   -0.7500    1.2990    0.0000 C   0  0  0  0  0  0  0  0  0  0  0  0
    0.7500    1.2990    0.0000 C   0  0  0  0  0  0  0  0  0  0  0  0
  1  2  1  0
  2  3  1  0
  3  4  2  0
  4  5  1  0
  5  6  2  0
  6  7  1  0
  7  8  1  0
  8  9  1  0
  9 10  1  0
 10 11  2  0
 11 12  1  0
 12 13  2  0
 13 14  1  0
 14 15  2  3
 15 16  1  0
 16 17  2  0
 16 18  1  0
 18 19  1  0
 13 20  1  0
 20 21  2  0
  6 22  1  0
 22 23  2  0
 23  3  1  0
 21 10  1  0
M  END
>  <molecule_chembl_id>  (453) 
CHEMBL4469317

>  <canonical_smiles>  (453) 
COc1ccc(CNCc2ccc(C=CC(=O)NO)cc2)cc1

>  <pchembl_value_mean>  (453) 
6.03

>  <document_chembl_id>  (453) 
CHEMBL4385666

$$$$

     RDKit          2D

 21 21  0  0  0  0  0  0  0  0999 V2000
    3.0000    0.0000    0.0000 C   0  0  0  0  0  0  0  0  0  0  0  0
    1.5000    0.0000    0.0000 C   0  0  0  0  0  0  0  0  0  0  0  0
    0.7500   -1.2990    0.0000 C   0  0  0  0  0  0  0  0  0  0  0  0
   -0.7500   -1.2990    0.0000 C   0  0  0  0  0  0  0  0  0  0  0  0
   -1.5000    0.0000    0.0000 C   0  0  0  0  0  0  0  0  0  0  0  0
   -3.0000    0.0000    0.0000 C   0  0  0  0  0  0  0  0  0  0  0  0
   -3.7500   -1.2990    0.0000 O   0  0  0  0  0  0  0  0  0  0  0  0
   -3.7500    1.2990    0.0000 N   0  0  0  0  0  0  0  0  0  0  0  0
   -5.2500    1.2990    0.0000 O   0  0  0  0  0  0  0  0  0  0  0  0
   -6.0000    2.5981    0.0000 C   0  0  0  0  0  0  0  0  0  0  0  0
   -7.5000    2.5981    0.0000 C   0  0  0  0  0  0  0  0  0  0  0  0
   -8.2500    3.8971    0.0000 C   0  0  0  0  0  0  0  0  0  0  0  0
   -9.7500    3.8971    0.0000 C   0  0  0  0  0  0  0  0  0  0  0  0
  -10.5000    5.1962    0.0000 C   0  0  0  0  0  0  0  0  0  0  0  0
  -12.0000    5.1962    0.0000 C   0  0  0  0  0  0  0  0  0  0  0  0
  -12.7500    3.8971    0.0000 O   0  0  0  0  0  0  0  0  0  0  0  0
  -12.7500    6.4952    0.0000 N   0  0  0  0  0  0  0  0  0  0  0  0
  -14.2500    6.4952    0.0000 O   0  0  0  0  0  0  0  0  0  0  0  0
   -0.7500    1.2990    0.0000 C   0  0  0  0  0  0  0  0  0  0  0  0
    0.7500    1.2990    0.0000 C   0  0  0  0  0  0  0  0  0  0  0  0
    1.5000    2.5981    0.0000 C   0  0  0  0  0  0  0  0  0  0  0  0
  1  2  1  0
  2  3  2  0
  3  4  1  0
  4  5  2  0
  5  6  1  0
  6  7  2  0
  6  8  1  0
  8  9  1  0
  9 10  1  0
 10 11  1  0
 11 12  1  0
 12 13  1  0
 13 14  1  0
 14 15  1  0
 15 16  2  0
 15 17  1  0
 17 18  1  0
  5 19  1  0
 19 20  2  0
 20 21  1  0
 20  2  1  0
M  END
>  <molecule_chembl_id>  (454) 
CHEMBL2312167

>  <canonical_smiles>  (454) 
Cc1ccc(C(=O)NOCCCCCC(=O)NO)cc1C

>  <pchembl_value_mean>  (454) 
6.03

>  <document_chembl_id>  (454) 
CHEMBL2311425

$$$$

     RDKit          2D

 22 23  0  0  0  0  0  0  0  0999 V2000
    3.7500    1.2990    0.0000 O   0  0  0  0  0  0  0  0  0  0  0  0
    3.0000    0.0000    0.0000 C   0  0  0  0  0  0  0  0  0  0  0  0
    3.7500   -1.2990    0.0000 N   0  0  0  0  0  0  0  0  0  0  0  0
    5.2500   -1.2990    0.0000 O   0  0  0  0  0  0  0  0  0  0  0  0
    1.5000    0.0000    0.0000 C   0  0  0  0  0  0  0  0  0  0  0  0
    0.7500   -1.2990    0.0000 C   0  0  0  0  0  0  0  0  0  0  0  0
   -0.7500   -1.2990    0.0000 N   0  0  0  0  0  0  0  0  0  0  0  0
   -1.5000    0.0000    0.0000 C   0  0  0  0  0  0  0  0  0  0  0  0
   -3.0000    0.0000    0.0000 N   0  0  0  0  0  0  0  0  0  0  0  0
   -3.7500    1.2990    0.0000 C   0  0  0  0  0  0  0  0  0  0  0  0
   -3.0000    2.5981    0.0000 C   0  0  0  0  0  0  0  0  0  0  0  0
   -3.7500    3.8971    0.0000 C   0  0  0  0  0  0  0  0  0  0  0  0
   -3.0000    5.1962    0.0000 Cl  0  0  0  0  0  0  0  0  0  0  0  0
   -5.2500    3.8971    0.0000 C   0  0  0  0  0  0  0  0  0  0  0  0
   -6.0000    2.5981    0.0000 C   0  0  0  0  0  0  0  0  0  0  0  0
   -7.5000    2.5981    0.0000 C   0  0  0  0  0  0  0  0  0  0  0  0
   -9.0000    2.5981    0.0000 F   0  0  0  0  0  0  0  0  0  0  0  0
   -7.5000    4.0981    0.0000 F   0  0  0  0  0  0  0  0  0  0  0  0
   -7.5000    1.0981    0.0000 F   0  0  0  0  0  0  0  0  0  0  0  0
   -5.2500    1.2990    0.0000 C   0  0  0  0  0  0  0  0  0  0  0  0
   -0.7500    1.2990    0.0000 N   0  0  0  0  0  0  0  0  0  0  0  0
    0.7500    1.2990    0.0000 C   0  0  0  0  0  0  0  0  0  0  0  0
  1  2  2  0
  2  3  1  0
  3  4  1  0
  2  5  1  0
  5  6  2  0
  6  7  1  0
  7  8  2  0
  8  9  1  0
  9 10  1  0
 10 11  2  0
 11 12  1  0
 12 13  1  0
 12 14  2  0
 14 15  1  0
 15 16  1  0
 16 17  1  0
 16 18  1  0
 16 19  1  0
 15 20  2  0
  8 21  1  0
 21 22  2  0
 22  5  1  0
 20 10  1  0
M  END
>  <molecule_chembl_id>  (455) 
CHEMBL3655908

>  <canonical_smiles>  (455) 
O=C(NO)c1cnc(Nc2cc(Cl)cc(C(F)(F)F)c2)nc1

>  <pchembl_value_mean>  (455) 
6.03

>  <document_chembl_id>  (455) 
CHEMBL3639071

$$$$

     RDKit          2D

 26 28  0  0  0  0  0  0  0  0999 V2000
    3.0000    0.0000    0.0000 C   0  0  0  0  0  0  0  0  0  0  0  0
    1.5000    0.0000    0.0000 C   0  0  0  0  0  0  0  0  0  0  0  0
    0.7500   -1.2990    0.0000 C   0  0  0  0  0  0  0  0  0  0  0  0
   -0.7500   -1.2990    0.0000 C   0  0  0  0  0  0  0  0  0  0  0  0
   -1.5000    0.0000    0.0000 C   0  0  0  0  0  0  0  0  0  0  0  0
   -3.0000    0.0000    0.0000 C   0  0  0  0  0  0  0  0  0  0  0  0
   -3.8817   -1.2135    0.0000 C   0  0  0  0  0  0  0  0  0  0  0  0
   -5.3083   -0.7500    0.0000 C   0  0  0  0  0  0  0  0  0  0  0  0
   -6.5218   -1.6317    0.0000 C   0  0  0  0  0  0  0  0  0  0  0  0
   -7.7353   -2.5134    0.0000 F   0  0  0  0  0  0  0  0  0  0  0  0
   -7.4035   -0.4182    0.0000 F   0  0  0  0  0  0  0  0  0  0  0  0
   -5.6401   -2.8452    0.0000 F   0  0  0  0  0  0  0  0  0  0  0  0
   -5.3083    0.7500    0.0000 N   0  0  0  0  0  0  0  0  0  0  0  0
   -3.8817    1.2135    0.0000 N   0  0  0  0  0  0  0  0  0  0  0  0
   -3.4182    2.6401    0.0000 C   0  0  0  0  0  0  0  0  0  0  0  0
   -1.9509    2.9520    0.0000 C   0  0  0  0  0  0  0  0  0  0  0  0
   -1.4874    4.3786    0.0000 C   0  0  0  0  0  0  0  0  0  0  0  0
   -2.4911    5.4933    0.0000 C   0  0  0  0  0  0  0  0  0  0  0  0
   -2.0276    6.9199    0.0000 C   0  0  0  0  0  0  0  0  0  0  0  0
   -3.0313    8.0346    0.0000 O   0  0  0  0  0  0  0  0  0  0  0  0
   -0.5604    7.2317    0.0000 N   0  0  0  0  0  0  0  0  0  0  0  0
   -0.0968    8.6583    0.0000 O   0  0  0  0  0  0  0  0  0  0  0  0
   -3.9583    5.1814    0.0000 C   0  0  0  0  0  0  0  0  0  0  0  0
   -4.4218    3.7548    0.0000 C   0  0  0  0  0  0  0  0  0  0  0  0
   -0.7500    1.2990    0.0000 C   0  0  0  0  0  0  0  0  0  0  0  0
    0.7500    1.2990    0.0000 C   0  0  0  0  0  0  0  0  0  0  0  0
  1  2  1  0
  2  3  2  0
  3  4  1  0
  4  5  2  0
  5  6  1  0
  6  7  2  0
  7  8  1  0
  8  9  1  0
  9 10  1  0
  9 11  1  0
  9 12  1  0
  8 13  2  0
 13 14  1  0
 14 15  1  0
 15 16  2  0
 16 17  1  0
 17 18  2  0
 18 19  1  0
 19 20  2  0
 19 21  1  0
 21 22  1  0
 18 23  1  0
 23 24  2  0
  5 25  1  0
 25 26  2  0
 26  2  1  0
 14  6  1  0
 24 15  1  0
M  END
>  <molecule_chembl_id>  (456) 
CHEMBL4228699

>  <canonical_smiles>  (456) 
Cc1ccc(-c2cc(C(F)(F)F)nn2-c2ccc(C(=O)NO)cc2)cc1

>  <pchembl_value_mean>  (456) 
6.04

>  <document_chembl_id>  (456) 
CHEMBL4219109

$$$$

     RDKit          2D

 21 22  0  0  0  0  0  0  0  0999 V2000
    2.0490   -4.6471    0.0000 C   0  0  0  0  0  0  0  0  0  0  0  0
    0.7500   -3.8971    0.0000 C   0  0  0  0  0  0  0  0  0  0  0  0
   -0.5490   -3.1471    0.0000 C   0  0  0  0  0  0  0  0  0  0  0  0
    1.5000   -2.5981    0.0000 N   0  0  0  0  0  0  0  0  0  0  0  0
    0.7500   -1.2990    0.0000 C   0  0  0  0  0  0  0  0  0  0  0  0
    1.5000    0.0000    0.0000 N   0  0  0  0  0  0  0  0  0  0  0  0
    0.7500    1.2990    0.0000 C   0  0  0  0  0  0  0  0  0  0  0  0
   -0.7500    1.2990    0.0000 C   0  0  0  0  0  0  0  0  0  0  0  0
   -1.5000    2.5981    0.0000 C   0  0  0  0  0  0  0  0  0  0  0  0
   -3.0000    2.5981    0.0000 O   0  0  0  0  0  0  0  0  0  0  0  0
   -0.7500    3.8971    0.0000 N   0  0  0  0  0  0  0  0  0  0  0  0
   -1.5000    5.1962    0.0000 O   0  0  0  0  0  0  0  0  0  0  0  0
   -1.5000    0.0000    0.0000 C   0  0  0  0  0  0  0  0  0  0  0  0
   -0.7500   -1.2990    0.0000 N   0  0  0  0  0  0  0  0  0  0  0  0
   -0.0000   -5.1962    0.0000 C   0  0  0  0  0  0  0  0  0  0  0  0
   -1.5000   -5.1962    0.0000 C   0  0  0  0  0  0  0  0  0  0  0  0
   -2.2500   -6.4952    0.0000 C   0  0  0  0  0  0  0  0  0  0  0  0
   -1.5000   -7.7942    0.0000 C   0  0  0  0  0  0  0  0  0  0  0  0
   -0.0000   -7.7942    0.0000 C   0  0  0  0  0  0  0  0  0  0  0  0
    0.7500   -6.4952    0.0000 C   0  0  0  0  0  0  0  0  0  0  0  0
    2.2500   -6.4952    0.0000 F   0  0  0  0  0  0  0  0  0  0  0  0
  1  2  1  0
  2  3  1  0
  2  4  1  0
  4  5  1  0
  5  6  2  0
  6  7  1  0
  7  8  2  0
  8  9  1  0
  9 10  2  0
  9 11  1  0
 11 12  1  0
  8 13  1  0
 13 14  2  0
  2 15  1  0
 15 16  2  0
 16 17  1  0
 17 18  2  0
 18 19  1  0
 19 20  2  0
 20 21  1  0
 14  5  1  0
 20 15  1  0
M  END
>  <molecule_chembl_id>  (457) 
CHEMBL3655948

>  <canonical_smiles>  (457) 
CC(C)(Nc1ncc(C(=O)NO)cn1)c1ccccc1F

>  <pchembl_value_mean>  (457) 
6.04

>  <document_chembl_id>  (457) 
CHEMBL3639071

$$$$

     RDKit          2D

 41 44  0  0  0  0  0  0  0  0999 V2000
    1.9979  -12.6093    0.0000 C   0  0  0  0  0  0  0  0  0  0  0  0
    2.3097  -11.1421    0.0000 O   0  0  0  0  0  0  0  0  0  0  0  0
    1.1950  -10.1384    0.0000 C   0  0  0  0  0  0  0  0  0  0  0  0
   -0.2316  -10.6019    0.0000 C   0  0  0  0  0  0  0  0  0  0  0  0
   -1.3463   -9.5982    0.0000 C   0  0  0  0  0  0  0  0  0  0  0  0
   -1.0344   -8.1310    0.0000 C   0  0  0  0  0  0  0  0  0  0  0  0
   -2.1491   -7.1273    0.0000 C   0  0  0  0  0  0  0  0  0  0  0  0
   -3.5757   -7.5908    0.0000 O   0  0  0  0  0  0  0  0  0  0  0  0
   -1.8373   -5.6601    0.0000 N   0  0  0  0  0  0  0  0  0  0  0  0
   -2.9520   -4.6564    0.0000 C   0  0  0  0  0  0  0  0  0  0  0  0
   -2.6401   -3.1891    0.0000 C   0  0  0  0  0  0  0  0  0  0  0  0
   -1.2135   -2.7256    0.0000 C   0  0  0  0  0  0  0  0  0  0  0  0
   -0.0000   -3.6073    0.0000 C   0  0  0  0  0  0  0  0  0  0  0  0
    1.2135   -2.7256    0.0000 N   0  0  0  0  0  0  0  0  0  0  0  0
    0.7500   -1.2990    0.0000 C   0  0  0  0  0  0  0  0  0  0  0  0
    1.5000    0.0000    0.0000 C   0  0  0  0  0  0  0  0  0  0  0  0
    0.7500    1.2990    0.0000 C   0  0  0  0  0  0  0  0  0  0  0  0
   -0.7500    1.2990    0.0000 C   0  0  0  0  0  0  0  0  0  0  0  0
   -1.5000    0.0000    0.0000 C   0  0  0  0  0  0  0  0  0  0  0  0
   -0.7500   -1.2990    0.0000 C   0  0  0  0  0  0  0  0  0  0  0  0
   -4.3786   -5.1199    0.0000 C   0  0  0  0  0  0  0  0  0  0  0  0
   -5.4933   -4.1162    0.0000 O   0  0  0  0  0  0  0  0  0  0  0  0
   -4.6904   -6.5871    0.0000 N   0  0  0  0  0  0  0  0  0  0  0  0
   -6.1170   -7.0506    0.0000 C   0  0  0  0  0  0  0  0  0  0  0  0
   -6.4289   -8.5179    0.0000 C   0  0  0  0  0  0  0  0  0  0  0  0
   -7.8555   -8.9814    0.0000 C   0  0  0  0  0  0  0  0  0  0  0  0
   -8.1673  -10.4486    0.0000 C   0  0  0  0  0  0  0  0  0  0  0  0
   -9.5939  -10.9121    0.0000 C   0  0  0  0  0  0  0  0  0  0  0  0
   -9.9058  -12.3794    0.0000 C   0  0  0  0  0  0  0  0  0  0  0  0
   -8.7911  -13.3831    0.0000 O   0  0  0  0  0  0  0  0  0  0  0  0
  -11.3324  -12.8429    0.0000 N   0  0  0  0  0  0  0  0  0  0  0  0
  -11.6442  -14.3101    0.0000 C   0  0  0  0  0  0  0  0  0  0  0  0
  -13.0708  -14.7736    0.0000 C   0  0  0  0  0  0  0  0  0  0  0  0
  -13.3827  -16.2409    0.0000 C   0  0  0  0  0  0  0  0  0  0  0  0
  -12.2680  -17.2445    0.0000 C   0  0  0  0  0  0  0  0  0  0  0  0
  -12.5798  -18.7118    0.0000 F   0  0  0  0  0  0  0  0  0  0  0  0
  -10.8414  -16.7810    0.0000 C   0  0  0  0  0  0  0  0  0  0  0  0
  -10.5295  -15.3138    0.0000 C   0  0  0  0  0  0  0  0  0  0  0  0
   -9.1029  -14.8503    0.0000 N   0  0  0  0  0  0  0  0  0  0  0  0
    0.3922   -7.6675    0.0000 C   0  0  0  0  0  0  0  0  0  0  0  0
    1.5069   -8.6712    0.0000 C   0  0  0  0  0  0  0  0  0  0  0  0
  1  2  1  0
  2  3  1  0
  3  4  2  0
  4  5  1  0
  5  6  2  0
  6  7  1  0
  7  8  2  0
  7  9  1  0
  9 10  1  0
 10 11  1  0
 11 12  1  0
 12 13  2  0
 13 14  1  0
 14 15  1  0
 15 16  2  0
 16 17  1  0
 17 18  2  0
 18 19  1  0
 19 20  2  0
 10 21  1  0
 21 22  2  0
 21 23  1  0
 23 24  1  0
 24 25  1  0
 25 26  1  0
 26 27  1  0
 27 28  1  0
 28 29  1  0
 29 30  2  0
 29 31  1  0
 31 32  1  0
 32 33  2  0
 33 34  1  0
 34 35  2  0
 35 36  1  0
 35 37  1  0
 37 38  2  0
 38 39  1  0
  6 40  1  0
 40 41  2  0
 41  3  1  0
 20 12  1  0
 38 32  1  0
 20 15  1  0
M  END
>  <molecule_chembl_id>  (458) 
CHEMBL4102988

>  <canonical_smiles>  (458) 
COc1ccc(C(=O)NC(Cc2c[nH]c3ccccc23)C(=O)NCCCCCC(=O)Nc2ccc(F)cc2N)cc1

>  <pchembl_value_mean>  (458) 
6.04

>  <document_chembl_id>  (458) 
CHEMBL4020724

$$$$

     RDKit          2D

 33 37  0  0  0  0  0  0  0  0999 V2000
  -11.9685  -13.7841    0.0000 N   0  0  0  0  0  0  0  0  0  0  0  0
  -13.3951  -13.3206    0.0000 C   0  0  0  0  0  0  0  0  0  0  0  0
  -14.5098  -14.3243    0.0000 C   0  0  0  0  0  0  0  0  0  0  0  0
  -15.9364  -13.8608    0.0000 C   0  0  0  0  0  0  0  0  0  0  0  0
  -16.2483  -12.3936    0.0000 C   0  0  0  0  0  0  0  0  0  0  0  0
  -15.1336  -11.3899    0.0000 C   0  0  0  0  0  0  0  0  0  0  0  0
  -13.7070  -11.8534    0.0000 C   0  0  0  0  0  0  0  0  0  0  0  0
  -12.5923  -10.8497    0.0000 N   0  0  0  0  0  0  0  0  0  0  0  0
  -11.1657  -11.3132    0.0000 C   0  0  0  0  0  0  0  0  0  0  0  0
  -10.8538  -12.7804    0.0000 O   0  0  0  0  0  0  0  0  0  0  0  0
  -10.0510  -10.3095    0.0000 C   0  0  0  0  0  0  0  0  0  0  0  0
   -8.6244  -10.7730    0.0000 C   0  0  0  0  0  0  0  0  0  0  0  0
   -7.5097   -9.7693    0.0000 C   0  0  0  0  0  0  0  0  0  0  0  0
   -7.8215   -8.3021    0.0000 C   0  0  0  0  0  0  0  0  0  0  0  0
   -6.7068   -7.2984    0.0000 C   0  0  0  0  0  0  0  0  0  0  0  0
   -5.2802   -7.7620    0.0000 S   0  0  0  0  0  0  0  0  0  0  0  0
   -4.1655   -6.7583    0.0000 C   0  0  0  0  0  0  0  0  0  0  0  0
   -4.3223   -5.2665    0.0000 N   0  0  0  0  0  0  0  0  0  0  0  0
   -2.9520   -4.6564    0.0000 C   0  0  0  0  0  0  0  0  0  0  0  0
   -2.6401   -3.1891    0.0000 C   0  0  0  0  0  0  0  0  0  0  0  0
   -1.2135   -2.7256    0.0000 C   0  0  0  0  0  0  0  0  0  0  0  0
   -0.0000   -3.6073    0.0000 C   0  0  0  0  0  0  0  0  0  0  0  0
    1.2135   -2.7256    0.0000 N   0  0  0  0  0  0  0  0  0  0  0  0
    0.7500   -1.2990    0.0000 C   0  0  0  0  0  0  0  0  0  0  0  0
    1.5000    0.0000    0.0000 C   0  0  0  0  0  0  0  0  0  0  0  0
    0.7500    1.2990    0.0000 C   0  0  0  0  0  0  0  0  0  0  0  0
   -0.7500    1.2990    0.0000 C   0  0  0  0  0  0  0  0  0  0  0  0
   -1.5000    0.0000    0.0000 C   0  0  0  0  0  0  0  0  0  0  0  0
   -0.7500   -1.2990    0.0000 C   0  0  0  0  0  0  0  0  0  0  0  0
   -1.9483   -5.7711    0.0000 C   0  0  0  0  0  0  0  0  0  0  0  0
   -2.6983   -7.0701    0.0000 S   0  0  0  0  0  0  0  0  0  0  0  0
   -9.2481   -7.8386    0.0000 C   0  0  0  0  0  0  0  0  0  0  0  0
  -10.3628   -8.8423    0.0000 C   0  0  0  0  0  0  0  0  0  0  0  0
  1  2  1  0
  2  3  2  0
  3  4  1  0
  4  5  2  0
  5  6  1  0
  6  7  2  0
  7  8  1  0
  8  9  1  0
  9 10  2  0
  9 11  1  0
 11 12  2  0
 12 13  1  0
 13 14  2  0
 14 15  1  0
 15 16  1  0
 16 17  1  0
 17 18  2  0
 18 19  1  0
 19 20  1  0
 20 21  1  0
 21 22  2  0
 22 23  1  0
 23 24  1  0
 24 25  2  0
 25 26  1  0
 26 27  2  0
 27 28  1  0
 28 29  2  0
 19 30  1  0
 30 31  1  0
 14 32  1  0
 32 33  2  0
  7  2  1  0
 33 11  1  0
 31 17  1  0
 29 21  1  0
 29 24  1  0
M  END
>  <molecule_chembl_id>  (459) 
CHEMBL2407737

>  <canonical_smiles>  (459) 
Nc1ccccc1NC(=O)c1ccc(CSC2=NC(Cc3c[nH]c4ccccc34)CS2)cc1

>  <pchembl_value_mean>  (459) 
6.04

>  <document_chembl_id>  (459) 
CHEMBL2407081

$$$$

     RDKit          2D

 33 36  0  0  0  0  0  0  0  0999 V2000
    3.7500   -1.2990    0.0000 C   0  0  0  0  0  0  0  0  0  0  0  0
    3.0000    0.0000    0.0000 O   0  0  0  0  0  0  0  0  0  0  0  0
    1.5000    0.0000    0.0000 C   0  0  0  0  0  0  0  0  0  0  0  0
    0.7500   -1.2990    0.0000 C   0  0  0  0  0  0  0  0  0  0  0  0
   -0.7500   -1.2990    0.0000 C   0  0  0  0  0  0  0  0  0  0  0  0
   -1.5000    0.0000    0.0000 C   0  0  0  0  0  0  0  0  0  0  0  0
   -3.0000    0.0000    0.0000 C   0  0  0  0  0  0  0  0  0  0  0  0
   -3.8817   -1.2135    0.0000 C   0  0  0  0  0  0  0  0  0  0  0  0
   -5.3083   -0.7500    0.0000 C   0  0  0  0  0  0  0  0  0  0  0  0
   -6.5218   -1.6317    0.0000 C   0  0  0  0  0  0  0  0  0  0  0  0
   -7.8921   -1.0216    0.0000 C   0  0  0  0  0  0  0  0  0  0  0  0
   -9.1056   -1.9033    0.0000 C   0  0  0  0  0  0  0  0  0  0  0  0
   -8.9488   -3.3950    0.0000 C   0  0  0  0  0  0  0  0  0  0  0  0
   -7.5785   -4.0051    0.0000 C   0  0  0  0  0  0  0  0  0  0  0  0
   -6.3650   -3.1235    0.0000 C   0  0  0  0  0  0  0  0  0  0  0  0
   -5.3083    0.7500    0.0000 N   0  0  0  0  0  0  0  0  0  0  0  0
   -3.8817    1.2135    0.0000 C   0  0  0  0  0  0  0  0  0  0  0  0
   -3.4182    2.6401    0.0000 C   0  0  0  0  0  0  0  0  0  0  0  0
   -1.9509    2.9520    0.0000 O   0  0  0  0  0  0  0  0  0  0  0  0
   -4.4218    3.7548    0.0000 N   0  0  0  0  0  0  0  0  0  0  0  0
   -3.9583    5.1814    0.0000 C   0  0  0  0  0  0  0  0  0  0  0  0
   -2.4911    5.4933    0.0000 C   0  0  0  0  0  0  0  0  0  0  0  0
   -2.0276    6.9199    0.0000 C   0  0  0  0  0  0  0  0  0  0  0  0
   -3.0313    8.0346    0.0000 C   0  0  0  0  0  0  0  0  0  0  0  0
   -4.4985    7.7227    0.0000 C   0  0  0  0  0  0  0  0  0  0  0  0
   -5.5022    8.8374    0.0000 C   0  0  0  0  0  0  0  0  0  0  0  0
   -5.0387   10.2640    0.0000 C   0  0  0  0  0  0  0  0  0  0  0  0
   -3.5714   10.5759    0.0000 O   0  0  0  0  0  0  0  0  0  0  0  0
   -6.0424   11.3787    0.0000 N   0  0  0  0  0  0  0  0  0  0  0  0
   -5.5788   12.8053    0.0000 O   0  0  0  0  0  0  0  0  0  0  0  0
   -4.9620    6.2961    0.0000 C   0  0  0  0  0  0  0  0  0  0  0  0
   -0.7500    1.2990    0.0000 C   0  0  0  0  0  0  0  0  0  0  0  0
    0.7500    1.2990    0.0000 C   0  0  0  0  0  0  0  0  0  0  0  0
  1  2  1  0
  2  3  1  0
  3  4  2  0
  4  5  1  0
  5  6  2  0
  6  7  1  0
  7  8  1  0
  8  9  2  0
  9 10  1  0
 10 11  2  0
 11 12  1  0
 12 13  2  0
 13 14  1  0
 14 15  2  0
  9 16  1  0
 16 17  1  0
 17 18  1  0
 18 19  2  0
 18 20  1  0
 20 21  1  0
 21 22  2  0
 22 23  1  0
 23 24  2  0
 24 25  1  0
 25 26  1  0
 26 27  1  0
 27 28  2  0
 27 29  1  0
 29 30  1  0
 25 31  2  0
  6 32  1  0
 32 33  2  0
 33  3  1  0
 17  7  2  0
 31 21  1  0
 15 10  1  0
M  END
>  <molecule_chembl_id>  (460) 
CHEMBL3670664

>  <canonical_smiles>  (460) 
COc1ccc(-c2cc(-c3ccccc3)[nH]c2C(=O)Nc2cccc(CC(=O)NO)c2)cc1

>  <pchembl_value_mean>  (460) 
6.04

>  <document_chembl_id>  (460) 
CHEMBL3638813

$$$$

     RDKit          2D

 42 45  0  0  0  0  0  0  0  0999 V2000
    9.0000  -10.3923    0.0000 C   0  0  0  0  0  0  0  0  0  0  0  0
    8.2500   -9.0933    0.0000 C   0  0  0  0  0  0  0  0  0  0  0  0
    7.5000   -7.7942    0.0000 C   0  0  0  0  0  0  0  0  0  0  0  0
    6.0000   -7.7942    0.0000 C   0  0  0  0  0  0  0  0  0  0  0  0
    5.2500   -6.4952    0.0000 C   0  0  0  0  0  0  0  0  0  0  0  0
    6.0000   -5.1962    0.0000 C   0  0  0  0  0  0  0  0  0  0  0  0
    5.2500   -3.8971    0.0000 C   0  0  0  0  0  0  0  0  0  0  0  0
    3.7500   -3.8971    0.0000 N   0  0  0  0  0  0  0  0  0  0  0  0
    3.0000   -2.5981    0.0000 C   0  0  0  0  0  0  0  0  0  0  0  0
    3.7500   -1.2990    0.0000 O   0  0  0  0  0  0  0  0  0  0  0  0
    1.5000   -2.5981    0.0000 O   0  0  0  0  0  0  0  0  0  0  0  0
    0.7500   -1.2990    0.0000 C   0  0  0  0  0  0  0  0  0  0  0  0
    1.5000    0.0000    0.0000 C   0  0  0  0  0  0  0  0  0  0  0  0
    0.7500    1.2990    0.0000 C   0  0  0  0  0  0  0  0  0  0  0  0
    1.5000    2.5981    0.0000 C   0  0  0  0  0  0  0  0  0  0  0  0
   -0.7500    1.2990    0.0000 C   0  0  0  0  0  0  0  0  0  0  0  0
   -1.5000    0.0000    0.0000 C   0  0  0  0  0  0  0  0  0  0  0  0
   -3.0000    0.0000    0.0000 C   0  0  0  0  0  0  0  0  0  0  0  0
   -3.7500   -1.2990    0.0000 C   0  0  0  0  0  0  0  0  0  0  0  0
   -3.0000   -2.5981    0.0000 C   0  0  0  0  0  0  0  0  0  0  0  0
   -3.7500   -3.8971    0.0000 C   0  0  0  0  0  0  0  0  0  0  0  0
   -1.5000   -2.5981    0.0000 C   0  0  0  0  0  0  0  0  0  0  0  0
   -0.7500   -3.8971    0.0000 C   0  0  0  0  0  0  0  0  0  0  0  0
   -1.5000   -5.1962    0.0000 C   0  0  0  0  0  0  0  0  0  0  0  0
   -0.7500   -6.4952    0.0000 C   0  0  0  0  0  0  0  0  0  0  0  0
   -1.5000   -7.7942    0.0000 C   0  0  0  0  0  0  0  0  0  0  0  0
   -0.7500   -9.0933    0.0000 C   0  0  0  0  0  0  0  0  0  0  0  0
   -1.5000  -10.3923    0.0000 O   0  0  0  0  0  0  0  0  0  0  0  0
   -3.0000  -10.3923    0.0000 Si  0  0  0  0  0  4  0  0  0  0  0  0
   -3.0000  -11.8923    0.0000 C   0  0  0  0  0  0  0  0  0  0  0  0
   -3.0000   -8.8923    0.0000 C   0  0  0  0  0  0  0  0  0  0  0  0
   -4.5000  -10.3923    0.0000 C   0  0  0  0  0  0  0  0  0  0  0  0
   -4.5000   -8.8923    0.0000 C   0  0  0  0  0  0  0  0  0  0  0  0
   -4.5000  -11.8923    0.0000 C   0  0  0  0  0  0  0  0  0  0  0  0
   -6.0000  -10.3923    0.0000 C   0  0  0  0  0  0  0  0  0  0  0  0
    0.7500   -9.0933    0.0000 C   0  0  0  0  0  0  0  0  0  0  0  0
    1.5000   -7.7942    0.0000 C   0  0  0  0  0  0  0  0  0  0  0  0
    3.0000   -7.7942    0.0000 O   0  0  0  0  0  0  0  0  0  0  0  0
    0.7500   -6.4952    0.0000 O   0  0  0  0  0  0  0  0  0  0  0  0
   -0.7500   -1.2990    0.0000 C   0  0  0  0  0  0  0  0  0  0  0  0
    7.5000   -5.1962    0.0000 C   0  0  0  0  0  0  0  0  0  0  0  0
    8.2500   -6.4952    0.0000 C   0  0  0  0  0  0  0  0  0  0  0  0
  1  2  3  0
  2  3  1  0
  3  4  2  0
  4  5  1  0
  5  6  2  0
  6  7  1  0
  7  8  1  0
  8  9  1  0
  9 10  2  0
  9 11  1  0
 11 12  1  0
 12 13  1  0
 13 14  1  0
 14 15  1  0
 14 16  1  0
 16 17  2  0
 17 18  1  0
 18 19  2  0
 19 20  1  0
 20 21  1  0
 20 22  1  0
 22 23  1  0
 23 24  1  0
 24 25  1  0
 25 26  1  0
 26 27  1  0
 27 28  1  0
 28 29  1  0
 29 30  1  0
 29 31  1  0
 29 32  1  0
 32 33  1  0
 32 34  1  0
 32 35  1  0
 27 36  1  0
 36 37  1  0
 37 38  2  0
 37 39  1  0
 22 40  1  0
  6 41  1  0
 41 42  2  0
 42  3  1  0
 40 12  1  0
 40 17  1  0
 39 25  1  0
M  END
>  <molecule_chembl_id>  (461) 
CHEMBL3704923

>  <canonical_smiles>  (461) 
C#Cc1ccc(CNC(=O)OC2CC(C)C=C3C=CC(C)C(CCC4CC(O[Si](C)(C)C(C)(C)C)CC(=O)O4)C32)cc1

>  <pchembl_value_mean>  (461) 
6.05

>  <document_chembl_id>  (461) 
CHEMBL3639013

$$$$

     RDKit          2D

 23 24  0  0  0  0  0  0  0  0999 V2000
   10.4688  -10.2562    0.0000 O   0  0  0  0  0  0  0  0  0  0  0  0
    9.2553  -11.1379    0.0000 C   0  0  0  0  0  0  0  0  0  0  0  0
    7.8850  -10.5278    0.0000 C   0  0  0  0  0  0  0  0  0  0  0  0
    7.7282   -9.0360    0.0000 C   0  0  0  0  0  0  0  0  0  0  0  0
    6.3579   -8.4259    0.0000 C   0  0  0  0  0  0  0  0  0  0  0  0
    6.2011   -6.9341    0.0000 C   0  0  0  0  0  0  0  0  0  0  0  0
    4.8308   -6.3240    0.0000 N   0  0  0  0  0  0  0  0  0  0  0  0
    4.6740   -4.8322    0.0000 C   0  0  0  0  0  0  0  0  0  0  0  0
    5.8875   -3.9505    0.0000 O   0  0  0  0  0  0  0  0  0  0  0  0
    3.3037   -4.2221    0.0000 C   0  0  0  0  0  0  0  0  0  0  0  0
    2.9918   -2.7549    0.0000 C   0  0  0  0  0  0  0  0  0  0  0  0
    1.5000   -2.5981    0.0000 C   0  0  0  0  0  0  0  0  0  0  0  0
    0.7500   -1.2990    0.0000 C   0  0  0  0  0  0  0  0  0  0  0  0
    1.5000    0.0000    0.0000 C   0  0  0  0  0  0  0  0  0  0  0  0
    0.7500    1.2990    0.0000 C   0  0  0  0  0  0  0  0  0  0  0  0
   -0.7500    1.2990    0.0000 C   0  0  0  0  0  0  0  0  0  0  0  0
   -1.5000    2.5981    0.0000 F   0  0  0  0  0  0  0  0  0  0  0  0
   -1.5000    0.0000    0.0000 C   0  0  0  0  0  0  0  0  0  0  0  0
   -0.7500   -1.2990    0.0000 C   0  0  0  0  0  0  0  0  0  0  0  0
    0.8899   -3.9684    0.0000 N   0  0  0  0  0  0  0  0  0  0  0  0
    2.0046   -4.9721    0.0000 N   0  0  0  0  0  0  0  0  0  0  0  0
    9.4121  -12.6296    0.0000 N   0  0  0  0  0  0  0  0  0  0  0  0
   10.7824  -13.2397    0.0000 O   0  0  0  0  0  0  0  0  0  0  0  0
  1  2  2  0
  2  3  1  0
  3  4  1  0
  4  5  1  0
  5  6  1  0
  6  7  1  0
  7  8  1  0
  8  9  2  0
  8 10  1  0
 10 11  1  0
 11 12  2  0
 12 13  1  0
 13 14  2  0
 14 15  1  0
 15 16  2  0
 16 17  1  0
 16 18  1  0
 18 19  2  0
 12 20  1  0
 20 21  1  0
  2 22  1  0
 22 23  1  0
 21 10  2  0
 19 13  1  0
M  END
>  <molecule_chembl_id>  (462) 
CHEMBL4227275

>  <canonical_smiles>  (462) 
O=C(CCCCNC(=O)c1cc(-c2ccc(F)cc2)[nH]n1)NO

>  <pchembl_value_mean>  (462) 
6.05

>  <document_chembl_id>  (462) 
CHEMBL4219109

$$$$

     RDKit          2D

 25 27  0  0  0  0  0  0  0  0999 V2000
    3.7500   -1.2990    0.0000 C   0  0  0  0  0  0  0  0  0  0  0  0
    3.0000    0.0000    0.0000 O   0  0  0  0  0  0  0  0  0  0  0  0
    1.5000    0.0000    0.0000 C   0  0  0  0  0  0  0  0  0  0  0  0
    0.7500   -1.2990    0.0000 C   0  0  0  0  0  0  0  0  0  0  0  0
   -0.7500   -1.2990    0.0000 C   0  0  0  0  0  0  0  0  0  0  0  0
   -1.5000    0.0000    0.0000 C   0  0  0  0  0  0  0  0  0  0  0  0
   -3.0000    0.0000    0.0000 C   0  0  0  0  0  0  0  0  0  0  0  0
   -2.7395   -1.4772    0.0000 N   0  0  0  0  0  0  0  0  0  0  0  0
   -3.8886   -2.4414    0.0000 C   0  0  0  0  0  0  0  0  0  0  0  0
   -5.2981   -1.9284    0.0000 N   0  0  0  0  0  0  0  0  0  0  0  0
   -6.4472   -2.8925    0.0000 C   0  0  0  0  0  0  0  0  0  0  0  0
   -6.1867   -4.3698    0.0000 C   0  0  0  0  0  0  0  0  0  0  0  0
   -7.3358   -5.3339    0.0000 C   0  0  0  0  0  0  0  0  0  0  0  0
   -7.0753   -6.8111    0.0000 O   0  0  0  0  0  0  0  0  0  0  0  0
   -8.7453   -4.8209    0.0000 N   0  0  0  0  0  0  0  0  0  0  0  0
   -9.8944   -5.7851    0.0000 O   0  0  0  0  0  0  0  0  0  0  0  0
   -4.7772   -4.8828    0.0000 C   0  0  0  0  0  0  0  0  0  0  0  0
   -3.6281   -3.9186    0.0000 N   0  0  0  0  0  0  0  0  0  0  0  0
   -2.7395    1.4772    0.0000 C   0  0  0  0  0  0  0  0  0  0  0  0
   -3.8886    2.4414    0.0000 C   0  0  0  0  0  0  0  0  0  0  0  0
   -5.2981    1.9284    0.0000 C   0  0  0  0  0  0  0  0  0  0  0  0
   -5.5586    0.4512    0.0000 C   0  0  0  0  0  0  0  0  0  0  0  0
   -4.4095   -0.5130    0.0000 C   0  0  0  0  0  0  0  0  0  0  0  0
   -0.7500    1.2990    0.0000 C   0  0  0  0  0  0  0  0  0  0  0  0
    0.7500    1.2990    0.0000 C   0  0  0  0  0  0  0  0  0  0  0  0
  1  2  1  0
  2  3  1  0
  3  4  2  0
  4  5  1  0
  5  6  2  0
  6  7  1  0
  7  8  1  0
  8  9  1  0
  9 10  2  0
 10 11  1  0
 11 12  2  0
 12 13  1  0
 13 14  2  0
 13 15  1  0
 15 16  1  0
 12 17  1  0
 17 18  2  0
  7 19  1  0
 19 20  1  0
 20 21  1  0
 21 22  1  0
 22 23  1  0
  6 24  1  0
 24 25  2  0
 25  3  1  0
 23  7  1  0
 18  9  1  0
M  END
>  <molecule_chembl_id>  (463) 
CHEMBL3655991

>  <canonical_smiles>  (463) 
COc1ccc(C2(Nc3ncc(C(=O)NO)cn3)CCCCC2)cc1

>  <pchembl_value_mean>  (463) 
6.05

>  <document_chembl_id>  (463) 
CHEMBL3639071

$$$$

     RDKit          2D

 30 32  0  0  0  0  0  0  0  0999 V2000
    0.7500   -6.4952    0.0000 C   0  0  0  0  0  0  0  0  0  0  0  0
    1.5000   -5.1962    0.0000 C   0  0  0  0  0  0  0  0  0  0  0  0
    0.7500   -3.8971    0.0000 N   0  0  0  0  0  0  0  0  0  0  0  0
    1.5000   -2.5981    0.0000 C   0  0  0  0  0  0  0  0  0  0  0  0
    0.7500   -1.2990    0.0000 C   0  0  0  0  0  0  0  0  0  0  0  0
    1.5000    0.0000    0.0000 C   0  0  0  0  0  0  0  0  0  0  0  0
    0.7500    1.2990    0.0000 C   0  0  0  0  0  0  0  0  0  0  0  0
   -0.7500    1.2990    0.0000 N   0  0  0  0  0  0  0  0  0  0  0  0
   -1.5000    0.0000    0.0000 C   0  0  0  0  0  0  0  0  0  0  0  0
   -0.7500   -1.2990    0.0000 C   0  0  0  0  0  0  0  0  0  0  0  0
   -0.7500   -3.8971    0.0000 C   0  0  0  0  0  0  0  0  0  0  0  0
   -1.5000   -2.5981    0.0000 S   0  0  0  0  0  0  0  0  0  0  0  0
   -1.5000   -5.1962    0.0000 S   0  0  0  0  0  0  0  0  0  0  0  0
   -3.0000   -5.1962    0.0000 C   0  0  0  0  0  0  0  0  0  0  0  0
   -3.7500   -6.4952    0.0000 C   0  0  0  0  0  0  0  0  0  0  0  0
   -5.2500   -6.4952    0.0000 C   0  0  0  0  0  0  0  0  0  0  0  0
   -6.0000   -7.7942    0.0000 C   0  0  0  0  0  0  0  0  0  0  0  0
   -5.2500   -9.0933    0.0000 C   0  0  0  0  0  0  0  0  0  0  0  0
   -6.0000  -10.3923    0.0000 C   0  0  0  0  0  0  0  0  0  0  0  0
   -5.2500  -11.6913    0.0000 O   0  0  0  0  0  0  0  0  0  0  0  0
   -7.5000  -10.3923    0.0000 N   0  0  0  0  0  0  0  0  0  0  0  0
   -8.2500  -11.6913    0.0000 C   0  0  0  0  0  0  0  0  0  0  0  0
   -9.7500  -11.6913    0.0000 C   0  0  0  0  0  0  0  0  0  0  0  0
  -10.5000  -12.9904    0.0000 C   0  0  0  0  0  0  0  0  0  0  0  0
   -9.7500  -14.2894    0.0000 C   0  0  0  0  0  0  0  0  0  0  0  0
   -8.2500  -14.2894    0.0000 C   0  0  0  0  0  0  0  0  0  0  0  0
   -7.5000  -12.9904    0.0000 C   0  0  0  0  0  0  0  0  0  0  0  0
   -6.0000  -12.9904    0.0000 N   0  0  0  0  0  0  0  0  0  0  0  0
   -3.7500   -9.0933    0.0000 C   0  0  0  0  0  0  0  0  0  0  0  0
   -3.0000   -7.7942    0.0000 C   0  0  0  0  0  0  0  0  0  0  0  0
  1  2  1  0
  2  3  1  0
  3  4  1  0
  4  5  1  0
  5  6  2  0
  6  7  1  0
  7  8  2  0
  8  9  1  0
  9 10  2  0
  3 11  1  0
 11 12  2  0
 11 13  1  0
 13 14  1  0
 14 15  1  0
 15 16  2  0
 16 17  1  0
 17 18  2  0
 18 19  1  0
 19 20  2  0
 19 21  1  0
 21 22  1  0
 22 23  2  0
 23 24  1  0
 24 25  2  0
 25 26  1  0
 26 27  2  0
 27 28  1  0
 18 29  1  0
 29 30  2  0
 10  5  1  0
 30 15  1  0
 27 22  1  0
M  END
>  <molecule_chembl_id>  (464) 
CHEMBL4278948

>  <canonical_smiles>  (464) 
CCN(Cc1ccncc1)C(=S)SCc1ccc(C(=O)Nc2ccccc2N)cc1

>  <pchembl_value_mean>  (464) 
6.05

>  <document_chembl_id>  (464) 
CHEMBL4251578

$$$$

     RDKit          2D

 22 24  0  0  0  0  0  0  0  0999 V2000
    3.0000    0.0000    0.0000 N   0  0  0  0  0  0  0  0  0  0  0  0
    1.5000    0.0000    0.0000 C   0  0  0  0  0  0  0  0  0  0  0  0
    0.7500   -1.2990    0.0000 C   0  0  0  0  0  0  0  0  0  0  0  0
   -0.7500   -1.2990    0.0000 C   0  0  0  0  0  0  0  0  0  0  0  0
   -1.5000    0.0000    0.0000 C   0  0  0  0  0  0  0  0  0  0  0  0
   -3.0000    0.0000    0.0000 C   0  0  0  0  0  0  0  0  0  0  0  0
   -3.7500    1.2990    0.0000 C   0  0  0  0  0  0  0  0  0  0  0  0
   -5.2500    1.2990    0.0000 C   0  0  0  0  0  0  0  0  0  0  0  0
   -6.0000    0.0000    0.0000 C   0  0  0  0  0  0  0  0  0  0  0  0
   -5.2500   -1.2990    0.0000 C   0  0  0  0  0  0  0  0  0  0  0  0
   -3.7500   -1.2990    0.0000 C   0  0  0  0  0  0  0  0  0  0  0  0
   -0.7500    1.2990    0.0000 C   0  0  0  0  0  0  0  0  0  0  0  0
    0.7500    1.2990    0.0000 C   0  0  0  0  0  0  0  0  0  0  0  0
    1.5000    2.5981    0.0000 N   0  0  0  0  0  0  0  0  0  0  0  0
    0.7500    3.8971    0.0000 C   0  0  0  0  0  0  0  0  0  0  0  0
   -0.7500    3.8971    0.0000 O   0  0  0  0  0  0  0  0  0  0  0  0
    1.5000    5.1962    0.0000 C   0  0  0  0  0  0  0  0  0  0  0  0
    3.0000    5.1962    0.0000 C   0  0  0  0  0  0  0  0  0  0  0  0
    3.7500    6.4952    0.0000 C   0  0  0  0  0  0  0  0  0  0  0  0
    3.0000    7.7942    0.0000 C   0  0  0  0  0  0  0  0  0  0  0  0
    1.5000    7.7942    0.0000 N   0  0  0  0  0  0  0  0  0  0  0  0
    0.7500    6.4952    0.0000 C   0  0  0  0  0  0  0  0  0  0  0  0
  1  2  1  0
  2  3  2  0
  3  4  1  0
  4  5  2  0
  5  6  1  0
  6  7  2  0
  7  8  1  0
  8  9  2  0
  9 10  1  0
 10 11  2  0
  5 12  1  0
 12 13  2  0
 13 14  1  0
 14 15  1  0
 15 16  2  0
 15 17  1  0
 17 18  2  0
 18 19  1  0
 19 20  2  0
 20 21  1  0
 21 22  2  0
 13  2  1  0
 22 17  1  0
 11  6  1  0
M  END
>  <molecule_chembl_id>  (465) 
CHEMBL255805

>  <canonical_smiles>  (465) 
Nc1ccc(-c2ccccc2)cc1NC(=O)c1cccnc1

>  <pchembl_value_mean>  (465) 
6.05

>  <document_chembl_id>  (465) 
CHEMBL1152282

$$$$

     RDKit          2D

 24 25  0  0  0  0  0  0  0  0999 V2000
  -14.2500  -11.6913    0.0000 O   0  0  0  0  0  0  0  0  0  0  0  0
  -12.7500  -11.6913    0.0000 C   0  0  0  0  0  0  0  0  0  0  0  0
  -12.0000  -10.3923    0.0000 N   0  0  0  0  0  0  0  0  0  0  0  0
  -12.7500   -9.0933    0.0000 O   0  0  0  0  0  0  0  0  0  0  0  0
  -10.5000  -10.3923    0.0000 C   0  0  0  0  0  0  0  0  0  0  0  0
   -9.7500   -9.0933    0.0000 C   0  0  0  0  0  0  0  0  0  0  0  0
   -8.2500   -9.0933    0.0000 C   0  0  0  0  0  0  0  0  0  0  0  0
   -7.5000   -7.7942    0.0000 C   0  0  0  0  0  0  0  0  0  0  0  0
   -6.0000   -7.7942    0.0000 C   0  0  0  0  0  0  0  0  0  0  0  0
   -5.2500   -6.4952    0.0000 C   0  0  0  0  0  0  0  0  0  0  0  0
   -3.7500   -6.4952    0.0000 C   0  0  0  0  0  0  0  0  0  0  0  0
   -3.0000   -5.1962    0.0000 C   0  0  0  0  0  0  0  0  0  0  0  0
   -3.7500   -3.8971    0.0000 O   0  0  0  0  0  0  0  0  0  0  0  0
   -1.5000   -5.1962    0.0000 N   0  0  0  0  0  0  0  0  0  0  0  0
   -0.7500   -3.8971    0.0000 C   0  0  0  0  0  0  0  0  0  0  0  0
    0.7500   -3.8971    0.0000 C   0  0  0  0  0  0  0  0  0  0  0  0
    1.5000   -2.5981    0.0000 C   0  0  0  0  0  0  0  0  0  0  0  0
    0.7500   -1.2990    0.0000 C   0  0  0  0  0  0  0  0  0  0  0  0
    1.5000    0.0000    0.0000 C   0  0  0  0  0  0  0  0  0  0  0  0
    0.7500    1.2990    0.0000 C   0  0  0  0  0  0  0  0  0  0  0  0
   -0.7500    1.2990    0.0000 C   0  0  0  0  0  0  0  0  0  0  0  0
   -1.5000    0.0000    0.0000 C   0  0  0  0  0  0  0  0  0  0  0  0
   -0.7500   -1.2990    0.0000 C   0  0  0  0  0  0  0  0  0  0  0  0
   -1.5000   -2.5981    0.0000 C   0  0  0  0  0  0  0  0  0  0  0  0
  1  2  2  0
  2  3  1  0
  3  4  1  0
  3  5  1  0
  5  6  1  0
  6  7  1  0
  7  8  1  0
  8  9  1  0
  9 10  1  0
 10 11  1  0
 11 12  1  0
 12 13  2  0
 12 14  1  0
 14 15  1  0
 15 16  2  0
 16 17  1  0
 17 18  2  0
 18 19  1  0
 19 20  2  0
 20 21  1  0
 21 22  2  0
 22 23  1  0
 23 24  2  0
 24 15  1  0
 23 18  1  0
M  END
>  <molecule_chembl_id>  (466) 
CHEMBL141909

>  <canonical_smiles>  (466) 
O=CN(O)CCCCCCCC(=O)Nc1ccc2ccccc2c1

>  <pchembl_value_mean>  (466) 
6.05

>  <document_chembl_id>  (466) 
CHEMBL1137945

$$$$

     RDKit          2D

 21 21  0  0  0  0  0  0  0  0999 V2000
    3.0000    0.0000    0.0000 C   0  0  0  0  0  0  0  0  0  0  0  0
    1.5000    0.0000    0.0000 C   0  0  0  0  0  0  0  0  0  0  0  0
    0.7500   -1.2990    0.0000 C   0  0  0  0  0  0  0  0  0  0  0  0
   -0.7500   -1.2990    0.0000 C   0  0  0  0  0  0  0  0  0  0  0  0
   -1.5000   -2.5981    0.0000 C   0  0  0  0  0  0  0  0  0  0  0  0
   -1.5000    0.0000    0.0000 C   0  0  0  0  0  0  0  0  0  0  0  0
   -0.7500    1.2990    0.0000 C   0  0  0  0  0  0  0  0  0  0  0  0
   -1.5000    2.5981    0.0000 C   0  0  0  0  0  0  0  0  0  0  0  0
   -3.0000    2.5981    0.0000 O   0  0  0  0  0  0  0  0  0  0  0  0
   -0.7500    3.8971    0.0000 N   0  0  0  0  0  0  0  0  0  0  0  0
   -1.5000    5.1962    0.0000 O   0  0  0  0  0  0  0  0  0  0  0  0
   -0.7500    6.4952    0.0000 C   0  0  0  0  0  0  0  0  0  0  0  0
   -1.5000    7.7942    0.0000 C   0  0  0  0  0  0  0  0  0  0  0  0
   -0.7500    9.0933    0.0000 C   0  0  0  0  0  0  0  0  0  0  0  0
   -1.5000   10.3923    0.0000 C   0  0  0  0  0  0  0  0  0  0  0  0
   -0.7500   11.6913    0.0000 C   0  0  0  0  0  0  0  0  0  0  0  0
   -1.5000   12.9904    0.0000 C   0  0  0  0  0  0  0  0  0  0  0  0
   -3.0000   12.9904    0.0000 O   0  0  0  0  0  0  0  0  0  0  0  0
   -0.7500   14.2894    0.0000 N   0  0  0  0  0  0  0  0  0  0  0  0
   -1.5000   15.5885    0.0000 O   0  0  0  0  0  0  0  0  0  0  0  0
    0.7500    1.2990    0.0000 C   0  0  0  0  0  0  0  0  0  0  0  0
  1  2  1  0
  2  3  2  0
  3  4  1  0
  4  5  1  0
  4  6  2  0
  6  7  1  0
  7  8  1  0
  8  9  2  0
  8 10  1  0
 10 11  1  0
 11 12  1  0
 12 13  1  0
 13 14  1  0
 14 15  1  0
 15 16  1  0
 16 17  1  0
 17 18  2  0
 17 19  1  0
 19 20  1  0
  7 21  2  0
 21  2  1  0
M  END
>  <molecule_chembl_id>  (467) 
CHEMBL2312168

>  <canonical_smiles>  (467) 
Cc1cc(C)cc(C(=O)NOCCCCCC(=O)NO)c1

>  <pchembl_value_mean>  (467) 
6.05

>  <document_chembl_id>  (467) 
CHEMBL2311425

$$$$

     RDKit          2D

 55 59  0  0  0  0  0  0  0  0999 V2000
    3.0000    0.0000    0.0000 C   0  0  0  0  0  0  0  0  0  0  0  0
    1.5000    0.0000    0.0000 C   0  0  0  0  0  0  0  0  0  0  0  0
    0.7500   -1.2990    0.0000 C   0  0  0  0  0  0  0  0  0  0  0  0
   -0.7500   -1.2990    0.0000 C   0  0  0  0  0  0  0  0  0  0  0  0
   -1.5000   -2.5981    0.0000 C   0  0  0  0  0  0  0  0  0  0  0  0
   -3.0000   -2.5981    0.0000 C   0  0  0  0  0  0  0  0  0  0  0  0
   -3.7500   -1.2990    0.0000 C   0  0  0  0  0  0  0  0  0  0  0  0
   -5.2500   -1.2990    0.0000 C   0  0  0  0  0  0  0  0  0  0  0  0
   -3.0000    0.0000    0.0000 C   0  0  0  0  0  0  0  0  0  0  0  0
   -3.7500    1.2990    0.0000 C   0  0  0  0  0  0  0  0  0  0  0  0
   -3.0000    2.5981    0.0000 C   0  0  0  0  0  0  0  0  0  0  0  0
   -3.7500    3.8971    0.0000 C   0  0  0  0  0  0  0  0  0  0  0  0
   -3.0000    5.1962    0.0000 C   0  0  0  0  0  0  0  0  0  0  0  0
   -3.7500    6.4952    0.0000 C   0  0  0  0  0  0  0  0  0  0  0  0
   -3.0000    7.7942    0.0000 O   0  0  0  0  0  0  0  0  0  0  0  0
   -3.7500    9.0933    0.0000 Si  0  0  0  0  0  4  0  0  0  0  0  0
   -2.4510    9.8433    0.0000 C   0  0  0  0  0  0  0  0  0  0  0  0
   -5.0490    8.3433    0.0000 C   0  0  0  0  0  0  0  0  0  0  0  0
   -4.5000   10.3923    0.0000 C   0  0  0  0  0  0  0  0  0  0  0  0
   -5.7990    9.6423    0.0000 C   0  0  0  0  0  0  0  0  0  0  0  0
   -3.2010   11.1423    0.0000 C   0  0  0  0  0  0  0  0  0  0  0  0
   -5.2500   11.6913    0.0000 C   0  0  0  0  0  0  0  0  0  0  0  0
   -5.2500    6.4952    0.0000 C   0  0  0  0  0  0  0  0  0  0  0  0
   -6.0000    5.1962    0.0000 C   0  0  0  0  0  0  0  0  0  0  0  0
   -7.5000    5.1962    0.0000 O   0  0  0  0  0  0  0  0  0  0  0  0
   -5.2500    3.8971    0.0000 O   0  0  0  0  0  0  0  0  0  0  0  0
   -1.5000    0.0000    0.0000 C   0  0  0  0  0  0  0  0  0  0  0  0
   -0.7500    1.2990    0.0000 C   0  0  0  0  0  0  0  0  0  0  0  0
   -1.5000    2.5981    0.0000 O   0  0  0  0  0  0  0  0  0  0  0  0
   -0.7500    3.8971    0.0000 C   0  0  0  0  0  0  0  0  0  0  0  0
    0.7500    3.8971    0.0000 O   0  0  0  0  0  0  0  0  0  0  0  0
   -1.5000    5.1962    0.0000 N   0  0  0  0  0  0  0  0  0  0  0  0
   -0.7500    6.4952    0.0000 C   0  0  0  0  0  0  0  0  0  0  0  0
    0.7500    6.4952    0.0000 C   0  0  0  0  0  0  0  0  0  0  0  0
    1.5000    7.7942    0.0000 C   0  0  0  0  0  0  0  0  0  0  0  0
    3.0000    7.7942    0.0000 C   0  0  0  0  0  0  0  0  0  0  0  0
    3.7500    6.4952    0.0000 C   0  0  0  0  0  0  0  0  0  0  0  0
    5.2500    6.4952    0.0000 C   0  0  0  0  0  0  0  0  0  0  0  0
    6.1317    7.7087    0.0000 C   0  0  0  0  0  0  0  0  0  0  0  0
    7.5583    7.2452    0.0000 N   0  0  0  0  0  0  0  0  0  0  0  0
    8.7718    8.1269    0.0000 C   0  0  0  0  0  0  0  0  0  0  0  0
   10.1421    7.5168    0.0000 C   0  0  0  0  0  0  0  0  0  0  0  0
   11.3556    8.3984    0.0000 C   0  0  0  0  0  0  0  0  0  0  0  0
   12.7260    7.7883    0.0000 C   0  0  0  0  0  0  0  0  0  0  0  0
   13.9395    8.6700    0.0000 C   0  0  0  0  0  0  0  0  0  0  0  0
   15.3098    8.0599    0.0000 C   0  0  0  0  0  0  0  0  0  0  0  0
   16.5233    8.9416    0.0000 C   0  0  0  0  0  0  0  0  0  0  0  0
   16.3665   10.4334    0.0000 O   0  0  0  0  0  0  0  0  0  0  0  0
   17.8936    8.3315    0.0000 N   0  0  0  0  0  0  0  0  0  0  0  0
   19.1072    9.2132    0.0000 O   0  0  0  0  0  0  0  0  0  0  0  0
    7.5583    5.7452    0.0000 N   0  0  0  0  0  0  0  0  0  0  0  0
    6.1317    5.2817    0.0000 N   0  0  0  0  0  0  0  0  0  0  0  0
    3.0000    5.1962    0.0000 C   0  0  0  0  0  0  0  0  0  0  0  0
    1.5000    5.1962    0.0000 C   0  0  0  0  0  0  0  0  0  0  0  0
    0.7500    1.2990    0.0000 C   0  0  0  0  0  0  0  0  0  0  0  0
  1  2  1  0
  2  3  1  0
  3  4  2  0
  4  5  1  0
  5  6  2  0
  6  7  1  0
  7  8  1  0
  7  9  1  0
  9 10  1  0
 10 11  1  0
 11 12  1  0
 12 13  1  0
 13 14  1  0
 14 15  1  0
 15 16  1  0
 16 17  1  0
 16 18  1  0
 16 19  1  0
 19 20  1  0
 19 21  1  0
 19 22  1  0
 14 23  1  0
 23 24  1  0
 24 25  2  0
 24 26  1  0
  9 27  1  0
 27 28  1  0
 28 29  1  0
 29 30  1  0
 30 31  2  0
 30 32  1  0
 32 33  1  0
 33 34  1  0
 34 35  2  0
 35 36  1  0
 36 37  2  0
 37 38  1  0
 38 39  2  0
 39 40  1  0
 40 41  1  0
 41 42  1  0
 42 43  1  0
 43 44  1  0
 44 45  1  0
 45 46  1  0
 46 47  1  0
 47 48  2  0
 47 49  1  0
 49 50  1  0
 40 51  1  0
 51 52  2  0
 37 53  1  0
 53 54  2  0
 28 55  1  0
 55  2  1  0
 27  4  1  0
 54 34  1  0
 26 12  1  0
 52 38  1  0
M  END
>  <molecule_chembl_id>  (468) 
CHEMBL2347011

>  <canonical_smiles>  (468) 
CC1C=C2C=CC(C)C(CCC3CC(O[Si](C)(C)C(C)(C)C)CC(=O)O3)C2C(OC(=O)NCc2ccc(-c3cn(CCCCCCC(=O)NO)nn3)cc2)C1

>  <pchembl_value_mean>  (468) 
6.05

>  <document_chembl_id>  (468) 
CHEMBL2346500

$$$$

     RDKit          2D

 36 39  0  0  0  0  0  0  0  0999 V2000
    1.9979  -12.6093    0.0000 C   0  0  0  0  0  0  0  0  0  0  0  0
    2.3097  -11.1421    0.0000 O   0  0  0  0  0  0  0  0  0  0  0  0
    1.1950  -10.1384    0.0000 C   0  0  0  0  0  0  0  0  0  0  0  0
   -0.2316  -10.6019    0.0000 C   0  0  0  0  0  0  0  0  0  0  0  0
   -1.3463   -9.5982    0.0000 C   0  0  0  0  0  0  0  0  0  0  0  0
   -1.0344   -8.1310    0.0000 C   0  0  0  0  0  0  0  0  0  0  0  0
   -2.1491   -7.1273    0.0000 C   0  0  0  0  0  0  0  0  0  0  0  0
   -3.5757   -7.5908    0.0000 O   0  0  0  0  0  0  0  0  0  0  0  0
   -1.8373   -5.6601    0.0000 N   0  0  0  0  0  0  0  0  0  0  0  0
   -2.9520   -4.6564    0.0000 C   0  0  0  0  0  0  0  0  0  0  0  0
   -4.3786   -5.1199    0.0000 C   0  0  0  0  0  0  0  0  0  0  0  0
   -4.6904   -6.5871    0.0000 O   0  0  0  0  0  0  0  0  0  0  0  0
   -6.1170   -7.0506    0.0000 C   0  0  0  0  0  0  0  0  0  0  0  0
   -7.2317   -6.0469    0.0000 C   0  0  0  0  0  0  0  0  0  0  0  0
   -8.6583   -6.5105    0.0000 C   0  0  0  0  0  0  0  0  0  0  0  0
   -8.9702   -7.9777    0.0000 C   0  0  0  0  0  0  0  0  0  0  0  0
   -7.8555   -8.9814    0.0000 C   0  0  0  0  0  0  0  0  0  0  0  0
   -8.1673  -10.4486    0.0000 C   0  0  0  0  0  0  0  0  0  0  0  0
   -9.5939  -10.9121    0.0000 C   0  0  0  0  0  0  0  0  0  0  0  0
   -9.9058  -12.3794    0.0000 C   0  0  0  0  0  0  0  0  0  0  0  0
   -8.7911  -13.3831    0.0000 O   0  0  0  0  0  0  0  0  0  0  0  0
  -11.3324  -12.8429    0.0000 N   0  0  0  0  0  0  0  0  0  0  0  0
  -11.6442  -14.3101    0.0000 O   0  0  0  0  0  0  0  0  0  0  0  0
   -6.4289   -8.5179    0.0000 C   0  0  0  0  0  0  0  0  0  0  0  0
   -2.6401   -3.1891    0.0000 C   0  0  0  0  0  0  0  0  0  0  0  0
   -1.2135   -2.7256    0.0000 C   0  0  0  0  0  0  0  0  0  0  0  0
   -0.0000   -3.6073    0.0000 C   0  0  0  0  0  0  0  0  0  0  0  0
    1.2135   -2.7256    0.0000 N   0  0  0  0  0  0  0  0  0  0  0  0
    0.7500   -1.2990    0.0000 C   0  0  0  0  0  0  0  0  0  0  0  0
    1.5000    0.0000    0.0000 C   0  0  0  0  0  0  0  0  0  0  0  0
    0.7500    1.2990    0.0000 C   0  0  0  0  0  0  0  0  0  0  0  0
   -0.7500    1.2990    0.0000 C   0  0  0  0  0  0  0  0  0  0  0  0
   -1.5000    0.0000    0.0000 C   0  0  0  0  0  0  0  0  0  0  0  0
   -0.7500   -1.2990    0.0000 C   0  0  0  0  0  0  0  0  0  0  0  0
    0.3922   -7.6675    0.0000 C   0  0  0  0  0  0  0  0  0  0  0  0
    1.5069   -8.6712    0.0000 C   0  0  0  0  0  0  0  0  0  0  0  0
  1  2  1  0
  2  3  1  0
  3  4  2  0
  4  5  1  0
  5  6  2  0
  6  7  1  0
  7  8  2  0
  7  9  1  0
  9 10  1  0
 10 11  1  0
 11 12  1  0
 12 13  1  0
 13 14  2  0
 14 15  1  0
 15 16  2  0
 16 17  1  0
 17 18  1  0
 18 19  2  3
 19 20  1  0
 20 21  2  0
 20 22  1  0
 22 23  1  0
 17 24  2  0
 10 25  1  0
 25 26  1  0
 26 27  2  0
 27 28  1  0
 28 29  1  0
 29 30  2  0
 30 31  1  0
 31 32  2  0
 32 33  1  0
 33 34  2  0
  6 35  1  0
 35 36  2  0
 36  3  1  0
 24 13  1  0
 34 26  1  0
 34 29  1  0
M  END
>  <molecule_chembl_id>  (469) 
CHEMBL3354913

>  <canonical_smiles>  (469) 
COc1ccc(C(=O)NC(COc2cccc(C=CC(=O)NO)c2)Cc2c[nH]c3ccccc23)cc1

>  <pchembl_value_mean>  (469) 
6.06

>  <document_chembl_id>  (469) 
CHEMBL3351443

$$$$

     RDKit          2D

 31 34  0  0  0  0  0  0  0  0999 V2000
    3.0000    0.0000    0.0000 N   0  0  0  0  0  0  0  0  0  0  0  0
    1.5000    0.0000    0.0000 C   0  0  0  0  0  0  0  0  0  0  0  0
    0.7500   -1.2990    0.0000 C   0  0  0  0  0  0  0  0  0  0  0  0
   -0.7500   -1.2990    0.0000 C   0  0  0  0  0  0  0  0  0  0  0  0
   -1.5000    0.0000    0.0000 C   0  0  0  0  0  0  0  0  0  0  0  0
   -3.0000    0.0000    0.0000 C   0  0  0  0  0  0  0  0  0  0  0  0
   -3.8817   -1.2135    0.0000 C   0  0  0  0  0  0  0  0  0  0  0  0
   -5.3083   -0.7500    0.0000 C   0  0  0  0  0  0  0  0  0  0  0  0
   -5.3083    0.7500    0.0000 C   0  0  0  0  0  0  0  0  0  0  0  0
   -3.8817    1.2135    0.0000 S   0  0  0  0  0  0  0  0  0  0  0  0
   -0.7500    1.2990    0.0000 C   0  0  0  0  0  0  0  0  0  0  0  0
    0.7500    1.2990    0.0000 C   0  0  0  0  0  0  0  0  0  0  0  0
    1.5000    2.5981    0.0000 N   0  0  0  0  0  0  0  0  0  0  0  0
    0.7500    3.8971    0.0000 C   0  0  0  0  0  0  0  0  0  0  0  0
   -0.7500    3.8971    0.0000 O   0  0  0  0  0  0  0  0  0  0  0  0
    1.5000    5.1962    0.0000 C   0  0  0  0  0  0  0  0  0  0  0  0
    3.0000    5.1962    0.0000 C   0  0  0  0  0  0  0  0  0  0  0  0
    3.7500    6.4952    0.0000 C   0  0  0  0  0  0  0  0  0  0  0  0
    3.0000    7.7942    0.0000 C   0  0  0  0  0  0  0  0  0  0  0  0
    3.7500    9.0933    0.0000 C   0  0  0  0  0  0  0  0  0  0  0  0
    5.2500    9.0933    0.0000 N   0  0  0  0  0  0  0  0  0  0  0  0
    6.0000   10.3923    0.0000 C   0  0  0  0  0  0  0  0  0  0  0  0
    5.2500   11.6913    0.0000 O   0  0  0  0  0  0  0  0  0  0  0  0
    7.5000   10.3923    0.0000 N   0  0  0  0  0  0  0  0  0  0  0  0
    8.2500    9.0933    0.0000 C   0  0  0  0  0  0  0  0  0  0  0  0
    9.7500    9.0933    0.0000 C   0  0  0  0  0  0  0  0  0  0  0  0
   10.5000   10.3923    0.0000 O   0  0  0  0  0  0  0  0  0  0  0  0
    9.7500   11.6913    0.0000 C   0  0  0  0  0  0  0  0  0  0  0  0
    8.2500   11.6913    0.0000 C   0  0  0  0  0  0  0  0  0  0  0  0
    1.5000    7.7942    0.0000 C   0  0  0  0  0  0  0  0  0  0  0  0
    0.7500    6.4952    0.0000 C   0  0  0  0  0  0  0  0  0  0  0  0
  1  2  1  0
  2  3  2  0
  3  4  1  0
  4  5  2  0
  5  6  1  0
  6  7  2  0
  7  8  1  0
  8  9  2  0
  9 10  1  0
  5 11  1  0
 11 12  2  0
 12 13  1  0
 13 14  1  0
 14 15  2  0
 14 16  1  0
 16 17  2  0
 17 18  1  0
 18 19  2  0
 19 20  1  0
 20 21  1  0
 21 22  1  0
 22 23  2  0
 22 24  1  0
 24 25  1  0
 25 26  1  0
 26 27  1  0
 27 28  1  0
 28 29  1  0
 19 30  1  0
 30 31  2  0
 12  2  1  0
 31 16  1  0
 10  6  1  0
 29 24  1  0
M  END
>  <molecule_chembl_id>  (470) 
CHEMBL1957464

>  <canonical_smiles>  (470) 
Nc1ccc(-c2cccs2)cc1NC(=O)c1ccc(CNC(=O)N2CCOCC2)cc1

>  <pchembl_value_mean>  (470) 
6.06

>  <document_chembl_id>  (470) 
CHEMBL1955769

$$$$

     RDKit          2D

 35 38  0  0  0  0  0  0  0  0999 V2000
    3.7500   -1.2990    0.0000 C   0  0  0  0  0  0  0  0  0  0  0  0
    3.0000    0.0000    0.0000 O   0  0  0  0  0  0  0  0  0  0  0  0
    1.5000    0.0000    0.0000 C   0  0  0  0  0  0  0  0  0  0  0  0
    0.7500   -1.2990    0.0000 C   0  0  0  0  0  0  0  0  0  0  0  0
   -0.7500   -1.2990    0.0000 C   0  0  0  0  0  0  0  0  0  0  0  0
   -1.5000    0.0000    0.0000 C   0  0  0  0  0  0  0  0  0  0  0  0
   -2.9672    0.3119    0.0000 N   0  0  0  0  0  0  0  0  0  0  0  0
   -3.1240    1.8037    0.0000 C   0  0  0  0  0  0  0  0  0  0  0  0
   -4.4231    2.5537    0.0000 C   0  0  0  0  0  0  0  0  0  0  0  0
   -1.7537    2.4138    0.0000 C   0  0  0  0  0  0  0  0  0  0  0  0
   -1.4418    3.8810    0.0000 C   0  0  0  0  0  0  0  0  0  0  0  0
   -2.5565    4.8847    0.0000 C   0  0  0  0  0  0  0  0  0  0  0  0
   -3.9831    4.4211    0.0000 O   0  0  0  0  0  0  0  0  0  0  0  0
   -2.2447    6.3519    0.0000 N   0  0  0  0  0  0  0  0  0  0  0  0
   -3.3594    7.3556    0.0000 C   0  0  0  0  0  0  0  0  0  0  0  0
   -3.0475    8.8228    0.0000 C   0  0  0  0  0  0  0  0  0  0  0  0
   -4.1622    9.8265    0.0000 C   0  0  0  0  0  0  0  0  0  0  0  0
   -3.8504   11.2937    0.0000 C   0  0  0  0  0  0  0  0  0  0  0  0
   -4.9651   12.2974    0.0000 C   0  0  0  0  0  0  0  0  0  0  0  0
   -4.6532   13.7646    0.0000 C   0  0  0  0  0  0  0  0  0  0  0  0
   -5.7679   14.7683    0.0000 C   0  0  0  0  0  0  0  0  0  0  0  0
   -5.4561   16.2356    0.0000 C   0  0  0  0  0  0  0  0  0  0  0  0
   -7.1945   14.3048    0.0000 O   0  0  0  0  0  0  0  0  0  0  0  0
   -4.7860    6.8921    0.0000 C   0  0  0  0  0  0  0  0  0  0  0  0
   -5.9995    7.7737    0.0000 N   0  0  0  0  0  0  0  0  0  0  0  0
   -7.2130    6.8921    0.0000 C   0  0  0  0  0  0  0  0  0  0  0  0
   -8.6803    7.2039    0.0000 C   0  0  0  0  0  0  0  0  0  0  0  0
   -9.6839    6.0892    0.0000 C   0  0  0  0  0  0  0  0  0  0  0  0
   -9.2204    4.6626    0.0000 C   0  0  0  0  0  0  0  0  0  0  0  0
  -10.2241    3.5479    0.0000 Cl  0  0  0  0  0  0  0  0  0  0  0  0
   -7.7532    4.3508    0.0000 C   0  0  0  0  0  0  0  0  0  0  0  0
   -6.7495    5.4655    0.0000 C   0  0  0  0  0  0  0  0  0  0  0  0
   -5.2495    5.4655    0.0000 N   0  0  0  0  0  0  0  0  0  0  0  0
   -0.7500    1.2990    0.0000 C   0  0  0  0  0  0  0  0  0  0  0  0
    0.7500    1.2990    0.0000 C   0  0  0  0  0  0  0  0  0  0  0  0
  1  2  1  0
  2  3  1  0
  3  4  2  0
  4  5  1  0
  5  6  2  0
  6  7  1  0
  7  8  1  0
  8  9  1  0
  8 10  2  0
 10 11  1  0
 11 12  1  0
 12 13  2  0
 12 14  1  0
 14 15  1  0
 15 16  1  0
 16 17  1  0
 17 18  1  0
 18 19  1  0
 19 20  1  0
 20 21  1  0
 21 22  1  0
 21 23  2  0
 15 24  1  0
 24 25  2  0
 25 26  1  0
 26 27  2  0
 27 28  1  0
 28 29  2  0
 29 30  1  0
 29 31  1  0
 31 32  2  0
 32 33  1  0
 10 34  1  0
 34 35  2  0
 35  3  1  0
 34  6  1  0
 33 24  1  0
 32 26  1  0
M  END
>  <molecule_chembl_id>  (471) 
CHEMBL406927

>  <canonical_smiles>  (471) 
COc1ccc2[nH]c(C)c(CC(=O)NC(CCCCCC(C)=O)c3nc4ccc(Cl)cc4[nH]3)c2c1

>  <pchembl_value_mean>  (471) 
6.06

>  <document_chembl_id>  (471) 
CHEMBL1144784

$$$$

     RDKit          2D

 35 37  0  0  0  0  0  0  0  0999 V2000
    7.5000   -2.5981    0.0000 C   0  0  0  0  0  0  0  0  0  0  0  0
    6.0000   -2.5981    0.0000 C   0  0  0  0  0  0  0  0  0  0  0  0
    5.2500   -1.2990    0.0000 O   0  0  0  0  0  0  0  0  0  0  0  0
    3.7500   -1.2990    0.0000 C   0  0  0  0  0  0  0  0  0  0  0  0
    3.0000   -2.5981    0.0000 O   0  0  0  0  0  0  0  0  0  0  0  0
    3.0000    0.0000    0.0000 N   0  0  0  0  0  0  0  0  0  0  0  0
    1.5000    0.0000    0.0000 C   0  0  0  0  0  0  0  0  0  0  0  0
    0.7500   -1.2990    0.0000 C   0  0  0  0  0  0  0  0  0  0  0  0
   -0.7500   -1.2990    0.0000 C   0  0  0  0  0  0  0  0  0  0  0  0
   -1.5000    0.0000    0.0000 C   0  0  0  0  0  0  0  0  0  0  0  0
   -0.7500    1.2990    0.0000 C   0  0  0  0  0  0  0  0  0  0  0  0
   -1.5000    2.5981    0.0000 C   0  0  0  0  0  0  0  0  0  0  0  0
   -2.9918    2.7549    0.0000 C   0  0  0  0  0  0  0  0  0  0  0  0
   -3.3037    4.2221    0.0000 S   0  0  0  0  0  0  0  0  0  0  0  0
   -2.0046    4.9721    0.0000 C   0  0  0  0  0  0  0  0  0  0  0  0
   -1.8478    6.4639    0.0000 N   0  0  0  0  0  0  0  0  0  0  0  0
   -0.4775    7.0740    0.0000 C   0  0  0  0  0  0  0  0  0  0  0  0
    0.7360    6.1923    0.0000 O   0  0  0  0  0  0  0  0  0  0  0  0
   -0.3207    8.5658    0.0000 C   0  0  0  0  0  0  0  0  0  0  0  0
    1.0496    9.1759    0.0000 C   0  0  0  0  0  0  0  0  0  0  0  0
    1.2064   10.6676    0.0000 C   0  0  0  0  0  0  0  0  0  0  0  0
    2.5767   11.2778    0.0000 C   0  0  0  0  0  0  0  0  0  0  0  0
    2.7335   12.7695    0.0000 C   0  0  0  0  0  0  0  0  0  0  0  0
    4.1038   13.3796    0.0000 C   0  0  0  0  0  0  0  0  0  0  0  0
    5.3174   12.4980    0.0000 O   0  0  0  0  0  0  0  0  0  0  0  0
    4.2606   14.8714    0.0000 N   0  0  0  0  0  0  0  0  0  0  0  0
    5.6309   15.4815    0.0000 C   0  0  0  0  0  0  0  0  0  0  0  0
    6.8445   14.5999    0.0000 C   0  0  0  0  0  0  0  0  0  0  0  0
    8.2148   15.2100    0.0000 C   0  0  0  0  0  0  0  0  0  0  0  0
    8.3716   16.7017    0.0000 C   0  0  0  0  0  0  0  0  0  0  0  0
    7.1581   17.5834    0.0000 C   0  0  0  0  0  0  0  0  0  0  0  0
    5.7877   16.9733    0.0000 C   0  0  0  0  0  0  0  0  0  0  0  0
    4.5742   17.8550    0.0000 N   0  0  0  0  0  0  0  0  0  0  0  0
   -0.8899    3.9684    0.0000 N   0  0  0  0  0  0  0  0  0  0  0  0
    0.7500    1.2990    0.0000 C   0  0  0  0  0  0  0  0  0  0  0  0
  1  2  1  0
  2  3  1  0
  3  4  1  0
  4  5  2  0
  4  6  1  0
  6  7  1  0
  7  8  2  0
  8  9  1  0
  9 10  2  0
 10 11  1  0
 11 12  1  0
 12 13  2  0
 13 14  1  0
 14 15  1  0
 15 16  1  0
 16 17  1  0
 17 18  2  0
 17 19  1  0
 19 20  1  0
 20 21  1  0
 21 22  1  0
 22 23  1  0
 23 24  1  0
 24 25  2  0
 24 26  1  0
 26 27  1  0
 27 28  2  0
 28 29  1  0
 29 30  2  0
 30 31  1  0
 31 32  2  0
 32 33  1  0
 15 34  2  0
 11 35  2  0
 35  7  1  0
 34 12  1  0
 32 27  1  0
M  END
>  <molecule_chembl_id>  (472) 
CHEMBL4551095

>  <canonical_smiles>  (472) 
CCOC(=O)Nc1cccc(-c2csc(NC(=O)CCCCCC(=O)Nc3ccccc3N)n2)c1

>  <pchembl_value_mean>  (472) 
6.06

>  <document_chembl_id>  (472) 
CHEMBL4400533

$$$$

     RDKit          2D

 32 35  0  0  0  0  0  0  0  0999 V2000
   -0.7500  -11.6913    0.0000 O   0  0  0  0  0  0  0  0  0  0  0  0
    0.7500  -11.6913    0.0000 C   0  0  0  0  0  0  0  0  0  0  0  0
    1.5000  -10.3923    0.0000 C   0  0  0  0  0  0  0  0  0  0  0  0
    0.7500   -9.0933    0.0000 C   0  0  0  0  0  0  0  0  0  0  0  0
    1.5000   -7.7942    0.0000 C   0  0  0  0  0  0  0  0  0  0  0  0
    0.7500   -6.4952    0.0000 C   0  0  0  0  0  0  0  0  0  0  0  0
    1.5000   -5.1962    0.0000 C   0  0  0  0  0  0  0  0  0  0  0  0
    0.7500   -3.8971    0.0000 N   0  0  0  0  0  0  0  0  0  0  0  0
    1.5000   -2.5981    0.0000 C   0  0  0  0  0  0  0  0  0  0  0  0
    3.0000   -2.5981    0.0000 O   0  0  0  0  0  0  0  0  0  0  0  0
    0.7500   -1.2990    0.0000 C   0  0  0  0  0  0  0  0  0  0  0  0
    1.5000    0.0000    0.0000 C   0  0  0  0  0  0  0  0  0  0  0  0
    0.7500    1.2990    0.0000 C   0  0  0  0  0  0  0  0  0  0  0  0
   -0.7500    1.2990    0.0000 C   0  0  0  0  0  0  0  0  0  0  0  0
   -1.5000    0.0000    0.0000 C   0  0  0  0  0  0  0  0  0  0  0  0
   -3.0000    0.0000    0.0000 C   0  0  0  0  0  0  0  0  0  0  0  0
   -3.7500    1.2990    0.0000 N   0  0  0  0  0  0  0  0  0  0  0  0
   -5.2500    1.2990    0.0000 C   0  0  0  0  0  0  0  0  0  0  0  0
   -6.0000    2.5981    0.0000 C   0  0  0  0  0  0  0  0  0  0  0  0
   -5.2500    3.8971    0.0000 C   0  0  0  0  0  0  0  0  0  0  0  0
   -6.0000    5.1962    0.0000 C   0  0  0  0  0  0  0  0  0  0  0  0
   -7.5000    5.1962    0.0000 C   0  0  0  0  0  0  0  0  0  0  0  0
   -8.2500    3.8971    0.0000 C   0  0  0  0  0  0  0  0  0  0  0  0
   -7.5000    2.5981    0.0000 C   0  0  0  0  0  0  0  0  0  0  0  0
   -3.7500   -1.2990    0.0000 C   0  0  0  0  0  0  0  0  0  0  0  0
   -3.0000   -2.5981    0.0000 C   0  0  0  0  0  0  0  0  0  0  0  0
   -1.5000   -2.5981    0.0000 C   0  0  0  0  0  0  0  0  0  0  0  0
   -0.7500   -1.2990    0.0000 C   0  0  0  0  0  0  0  0  0  0  0  0
   -0.7500   -3.8971    0.0000 C   0  0  0  0  0  0  0  0  0  0  0  0
   -1.5000   -5.1962    0.0000 O   0  0  0  0  0  0  0  0  0  0  0  0
    1.5000  -12.9904    0.0000 N   0  0  0  0  0  0  0  0  0  0  0  0
    0.7500  -14.2894    0.0000 O   0  0  0  0  0  0  0  0  0  0  0  0
  1  2  2  0
  2  3  1  0
  3  4  1  0
  4  5  1  0
  5  6  1  0
  6  7  1  0
  7  8  1  0
  8  9  1  0
  9 10  2  0
  9 11  1  0
 11 12  1  0
 12 13  2  0
 13 14  1  0
 14 15  2  0
 15 16  1  0
 16 17  1  0
 17 18  1  0
 18 19  1  0
 19 20  2  0
 20 21  1  0
 21 22  2  0
 22 23  1  0
 23 24  2  0
 16 25  2  0
 25 26  1  0
 26 27  2  0
 27 28  1  0
 27 29  1  0
 29 30  2  0
  2 31  1  0
 31 32  1  0
 29  8  1  0
 28 11  2  0
 28 15  1  0
 24 19  1  0
M  END
>  <molecule_chembl_id>  (473) 
CHEMBL4532304

>  <canonical_smiles>  (473) 
O=C(CCCCCN1C(=O)c2cccc3c(NCc4ccccc4)ccc(c23)C1=O)NO

>  <pchembl_value_mean>  (473) 
6.07

>  <document_chembl_id>  (473) 
CHEMBL4325904

$$$$

     RDKit          2D

 35 37  0  0  0  0  0  0  0  0999 V2000
    3.7500   -1.2990    0.0000 C   0  0  0  0  0  0  0  0  0  0  0  0
    3.0000    0.0000    0.0000 O   0  0  0  0  0  0  0  0  0  0  0  0
    1.5000    0.0000    0.0000 C   0  0  0  0  0  0  0  0  0  0  0  0
    0.7500   -1.2990    0.0000 C   0  0  0  0  0  0  0  0  0  0  0  0
   -0.7500   -1.2990    0.0000 C   0  0  0  0  0  0  0  0  0  0  0  0
   -1.5000    0.0000    0.0000 C   0  0  0  0  0  0  0  0  0  0  0  0
   -0.7500    1.2990    0.0000 C   0  0  0  0  0  0  0  0  0  0  0  0
    0.7500    1.2990    0.0000 C   0  0  0  0  0  0  0  0  0  0  0  0
   -1.7537    2.4138    0.0000 C   0  0  0  0  0  0  0  0  0  0  0  0
   -1.4418    3.8810    0.0000 C   0  0  0  0  0  0  0  0  0  0  0  0
   -2.5565    4.8847    0.0000 C   0  0  0  0  0  0  0  0  0  0  0  0
   -3.9831    4.4211    0.0000 O   0  0  0  0  0  0  0  0  0  0  0  0
   -2.2447    6.3519    0.0000 N   0  0  0  0  0  0  0  0  0  0  0  0
   -3.3594    7.3556    0.0000 C   0  0  0  0  0  0  0  0  0  0  0  0
   -3.0475    8.8228    0.0000 C   0  0  0  0  0  0  0  0  0  0  0  0
   -4.1622    9.8265    0.0000 C   0  0  0  0  0  0  0  0  0  0  0  0
   -3.8504   11.2937    0.0000 C   0  0  0  0  0  0  0  0  0  0  0  0
   -4.9651   12.2974    0.0000 C   0  0  0  0  0  0  0  0  0  0  0  0
   -4.6532   13.7646    0.0000 C   0  0  0  0  0  0  0  0  0  0  0  0
   -5.7679   14.7683    0.0000 C   0  0  0  0  0  0  0  0  0  0  0  0
   -7.1945   14.3048    0.0000 O   0  0  0  0  0  0  0  0  0  0  0  0
   -5.4561   16.2356    0.0000 N   0  0  0  0  0  0  0  0  0  0  0  0
   -6.5708   17.2393    0.0000 O   0  0  0  0  0  0  0  0  0  0  0  0
   -3.1240    1.8037    0.0000 C   0  0  0  0  0  0  0  0  0  0  0  0
   -4.4231    2.5537    0.0000 C   0  0  0  0  0  0  0  0  0  0  0  0
   -2.9672    0.3119    0.0000 N   0  0  0  0  0  0  0  0  0  0  0  0
   -4.0819   -0.6918    0.0000 C   0  0  0  0  0  0  0  0  0  0  0  0
   -3.7701   -2.1590    0.0000 O   0  0  0  0  0  0  0  0  0  0  0  0
   -5.5085   -0.2283    0.0000 C   0  0  0  0  0  0  0  0  0  0  0  0
   -5.8204    1.2389    0.0000 C   0  0  0  0  0  0  0  0  0  0  0  0
   -7.2470    1.7024    0.0000 C   0  0  0  0  0  0  0  0  0  0  0  0
   -8.3617    0.6987    0.0000 C   0  0  0  0  0  0  0  0  0  0  0  0
   -9.7883    1.1623    0.0000 Cl  0  0  0  0  0  0  0  0  0  0  0  0
   -8.0498   -0.7685    0.0000 C   0  0  0  0  0  0  0  0  0  0  0  0
   -6.6232   -1.2320    0.0000 C   0  0  0  0  0  0  0  0  0  0  0  0
  1  2  1  0
  2  3  1  0
  3  4  2  0
  4  5  1  0
  5  6  2  0
  6  7  1  0
  7  8  2  0
  7  9  1  0
  9 10  1  0
 10 11  1  0
 11 12  2  0
 11 13  1  0
 13 14  1  0
 14 15  1  0
 15 16  1  0
 16 17  1  0
 17 18  1  0
 18 19  1  0
 19 20  1  0
 20 21  2  0
 20 22  1  0
 22 23  1  0
  9 24  2  0
 24 25  1  0
 24 26  1  0
 26 27  1  0
 27 28  2  0
 27 29  1  0
 29 30  2  0
 30 31  1  0
 31 32  2  0
 32 33  1  0
 32 34  1  0
 34 35  2  0
  8  3  1  0
 35 29  1  0
 26  6  1  0
M  END
>  <molecule_chembl_id>  (474) 
CHEMBL3885367

>  <canonical_smiles>  (474) 
COc1ccc2c(c1)c(CC(=O)NCCCCCCC(=O)NO)c(C)n2C(=O)c1ccc(Cl)cc1

>  <pchembl_value_mean>  (474) 
6.07

>  <document_chembl_id>  (474) 
CHEMBL3875218

$$$$

     RDKit          2D

 41 46  0  0  0  0  0  0  0  0999 V2000
   -0.5864  -10.4561    0.0000 C   0  0  0  0  0  0  0  0  0  0  0  0
    0.6272   -9.5744    0.0000 C   0  0  0  0  0  0  0  0  0  0  0  0
    0.4704   -8.0826    0.0000 C   0  0  0  0  0  0  0  0  0  0  0  0
    1.6839   -7.2010    0.0000 C   0  0  0  0  0  0  0  0  0  0  0  0
    1.5271   -5.7092    0.0000 C   0  0  0  0  0  0  0  0  0  0  0  0
    0.1568   -5.0991    0.0000 N   0  0  0  0  0  0  0  0  0  0  0  0
   -0.0000   -3.6073    0.0000 C   0  0  0  0  0  0  0  0  0  0  0  0
   -1.2135   -2.7256    0.0000 S   0  0  0  0  0  0  0  0  0  0  0  0
   -0.7500   -1.2990    0.0000 C   0  0  0  0  0  0  0  0  0  0  0  0
    0.7500   -1.2990    0.0000 C   0  0  0  0  0  0  0  0  0  0  0  0
    1.2135   -2.7256    0.0000 C   0  0  0  0  0  0  0  0  0  0  0  0
    2.5838   -3.3357    0.0000 C   0  0  0  0  0  0  0  0  0  0  0  0
    3.7974   -2.4540    0.0000 O   0  0  0  0  0  0  0  0  0  0  0  0
    2.7406   -4.8275    0.0000 N   0  0  0  0  0  0  0  0  0  0  0  0
    1.5000    0.0000    0.0000 C   0  0  0  0  0  0  0  0  0  0  0  0
    0.7500    1.2990    0.0000 C   0  0  0  0  0  0  0  0  0  0  0  0
   -0.7500    1.2990    0.0000 N   0  0  0  0  0  0  0  0  0  0  0  0
   -1.5000    2.5981    0.0000 C   0  0  0  0  0  0  0  0  0  0  0  0
   -1.5000    0.0000    0.0000 C   0  0  0  0  0  0  0  0  0  0  0  0
    3.0542   -7.8111    0.0000 C   0  0  0  0  0  0  0  0  0  0  0  0
    3.2110   -9.3029    0.0000 C   0  0  0  0  0  0  0  0  0  0  0  0
    4.5813   -9.9130    0.0000 C   0  0  0  0  0  0  0  0  0  0  0  0
    1.9975  -10.1845    0.0000 C   0  0  0  0  0  0  0  0  0  0  0  0
    2.1543  -11.6763    0.0000 O   0  0  0  0  0  0  0  0  0  0  0  0
    0.9408  -12.5580    0.0000 C   0  0  0  0  0  0  0  0  0  0  0  0
    1.0975  -14.0498    0.0000 C   0  0  0  0  0  0  0  0  0  0  0  0
   -0.1160  -14.9315    0.0000 C   0  0  0  0  0  0  0  0  0  0  0  0
    0.0408  -16.4232    0.0000 C   0  0  0  0  0  0  0  0  0  0  0  0
    1.4111  -17.0333    0.0000 C   0  0  0  0  0  0  0  0  0  0  0  0
    2.6247  -16.1517    0.0000 C   0  0  0  0  0  0  0  0  0  0  0  0
    3.9950  -16.7618    0.0000 C   0  0  0  0  0  0  0  0  0  0  0  0
    5.2085  -15.8801    0.0000 O   0  0  0  0  0  0  0  0  0  0  0  0
    4.1518  -18.2536    0.0000 N   0  0  0  0  0  0  0  0  0  0  0  0
    5.5221  -18.8637    0.0000 C   0  0  0  0  0  0  0  0  0  0  0  0
    5.6789  -20.3554    0.0000 C   0  0  0  0  0  0  0  0  0  0  0  0
    7.0492  -20.9655    0.0000 C   0  0  0  0  0  0  0  0  0  0  0  0
    8.2627  -20.0839    0.0000 C   0  0  0  0  0  0  0  0  0  0  0  0
    8.1059  -18.5921    0.0000 C   0  0  0  0  0  0  0  0  0  0  0  0
    6.7356  -17.9820    0.0000 C   0  0  0  0  0  0  0  0  0  0  0  0
    6.5788  -16.4902    0.0000 N   0  0  0  0  0  0  0  0  0  0  0  0
    2.4679  -14.6599    0.0000 C   0  0  0  0  0  0  0  0  0  0  0  0
  1  2  1  0
  2  3  2  0
  3  4  1  0
  4  5  1  0
  5  6  2  0
  6  7  1  0
  7  8  1  0
  8  9  1  0
  9 10  2  0
 10 11  1  0
 11 12  1  0
 12 13  2  0
 12 14  1  0
 10 15  1  0
 15 16  1  0
 16 17  1  0
 17 18  1  0
 17 19  1  0
  4 20  2  0
 20 21  1  0
 21 22  1  0
 21 23  2  0
 23 24  1  0
 24 25  1  0
 25 26  1  0
 26 27  2  0
 27 28  1  0
 28 29  2  0
 29 30  1  0
 30 31  1  0
 31 32  2  0
 31 33  1  0
 33 34  1  0
 34 35  2  0
 35 36  1  0
 36 37  2  0
 37 38  1  0
 38 39  2  0
 39 40  1  0
 30 41  2  0
 23  2  1  0
 41 26  1  0
 14  5  1  0
 39 34  1  0
 11  7  2  0
 19  9  1  0
M  END
>  <molecule_chembl_id>  (475) 
CHEMBL4547886

>  <canonical_smiles>  (475) 
Cc1cc(-c2nc3sc4c(c3c(=O)[nH]2)CCN(C)C4)cc(C)c1OCc1cccc(C(=O)Nc2ccccc2N)c1

>  <pchembl_value_mean>  (475) 
6.07

>  <document_chembl_id>  (475) 
CHEMBL4342471

$$$$

     RDKit          2D

 32 35  0  0  0  0  0  0  0  0999 V2000
    3.7500   -1.2990    0.0000 C   0  0  0  0  0  0  0  0  0  0  0  0
    3.0000    0.0000    0.0000 C   0  0  0  0  0  0  0  0  0  0  0  0
    3.7500    1.2990    0.0000 O   0  0  0  0  0  0  0  0  0  0  0  0
    1.5000    0.0000    0.0000 C   0  0  0  0  0  0  0  0  0  0  0  0
    0.7500   -1.2990    0.0000 C   0  0  0  0  0  0  0  0  0  0  0  0
   -0.7500   -1.2990    0.0000 C   0  0  0  0  0  0  0  0  0  0  0  0
   -1.5000    0.0000    0.0000 C   0  0  0  0  0  0  0  0  0  0  0  0
   -2.9672    0.3119    0.0000 N   0  0  0  0  0  0  0  0  0  0  0  0
   -3.1240    1.8037    0.0000 C   0  0  0  0  0  0  0  0  0  0  0  0
   -4.4231    2.5537    0.0000 C   0  0  0  0  0  0  0  0  0  0  0  0
   -5.7221    1.8037    0.0000 O   0  0  0  0  0  0  0  0  0  0  0  0
   -4.4231    4.0537    0.0000 N   0  0  0  0  0  0  0  0  0  0  0  0
   -5.7221    4.8037    0.0000 C   0  0  0  0  0  0  0  0  0  0  0  0
   -5.7221    6.3037    0.0000 C   0  0  0  0  0  0  0  0  0  0  0  0
   -4.4231    7.0537    0.0000 C   0  0  0  0  0  0  0  0  0  0  0  0
   -4.4231    8.5537    0.0000 C   0  0  0  0  0  0  0  0  0  0  0  0
   -5.7221    9.3037    0.0000 C   0  0  0  0  0  0  0  0  0  0  0  0
   -5.7221   10.8037    0.0000 C   0  0  0  0  0  0  0  0  0  0  0  0
   -7.0211   11.5537    0.0000 O   0  0  0  0  0  0  0  0  0  0  0  0
   -4.4231   11.5537    0.0000 N   0  0  0  0  0  0  0  0  0  0  0  0
   -4.4231   13.0537    0.0000 C   0  0  0  0  0  0  0  0  0  0  0  0
   -3.1240   13.8037    0.0000 C   0  0  0  0  0  0  0  0  0  0  0  0
   -3.1240   15.3037    0.0000 C   0  0  0  0  0  0  0  0  0  0  0  0
   -4.4231   16.0537    0.0000 C   0  0  0  0  0  0  0  0  0  0  0  0
   -5.7221   15.3037    0.0000 C   0  0  0  0  0  0  0  0  0  0  0  0
   -5.7221   13.8037    0.0000 C   0  0  0  0  0  0  0  0  0  0  0  0
   -7.0211   13.0537    0.0000 N   0  0  0  0  0  0  0  0  0  0  0  0
   -7.0211    8.5537    0.0000 C   0  0  0  0  0  0  0  0  0  0  0  0
   -7.0211    7.0537    0.0000 C   0  0  0  0  0  0  0  0  0  0  0  0
   -1.7537    2.4138    0.0000 C   0  0  0  0  0  0  0  0  0  0  0  0
   -0.7500    1.2990    0.0000 C   0  0  0  0  0  0  0  0  0  0  0  0
    0.7500    1.2990    0.0000 C   0  0  0  0  0  0  0  0  0  0  0  0
  1  2  1  0
  2  3  2  0
  2  4  1  0
  4  5  2  0
  5  6  1  0
  6  7  2  0
  7  8  1  0
  8  9  1  0
  9 10  1  0
 10 11  2  0
 10 12  1  0
 12 13  1  0
 13 14  1  0
 14 15  2  0
 15 16  1  0
 16 17  2  0
 17 18  1  0
 18 19  2  0
 18 20  1  0
 20 21  1  0
 21 22  2  0
 22 23  1  0
 23 24  2  0
 24 25  1  0
 25 26  2  0
 26 27  1  0
 17 28  1  0
 28 29  2  0
  9 30  2  0
 30 31  1  0
 31 32  2  0
 32  4  1  0
 31  7  1  0
 29 14  1  0
 26 21  1  0
M  END
>  <molecule_chembl_id>  (476) 
CHEMBL3673113

>  <canonical_smiles>  (476) 
CC(=O)c1ccc2[nH]c(C(=O)NCc3ccc(C(=O)Nc4ccccc4N)cc3)cc2c1

>  <pchembl_value_mean>  (476) 
6.075

>  <document_chembl_id>  (476) 
CHEMBL3638911

$$$$

     RDKit          2D

 28 31  0  0  0  0  0  0  0  0999 V2000
    9.1632    2.8396    0.0000 O   0  0  0  0  0  0  0  0  0  0  0  0
    7.8911    2.0447    0.0000 C   0  0  0  0  0  0  0  0  0  0  0  0
    7.9435    0.5457    0.0000 N   0  0  0  0  0  0  0  0  0  0  0  0
    9.2679   -0.1585    0.0000 O   0  0  0  0  0  0  0  0  0  0  0  0
    6.5667    2.7490    0.0000 C   0  0  0  0  0  0  0  0  0  0  0  0
    5.2946    1.9541    0.0000 C   0  0  0  0  0  0  0  0  0  0  0  0
    3.9702    2.6583    0.0000 N   0  0  0  0  0  0  0  0  0  0  0  0
    3.9178    4.1574    0.0000 C   0  0  0  0  0  0  0  0  0  0  0  0
    2.5934    4.8616    0.0000 N   0  0  0  0  0  0  0  0  0  0  0  0
    1.3213    4.0667    0.0000 C   0  0  0  0  0  0  0  0  0  0  0  0
    0.7594    5.4575    0.0000 C   0  0  0  0  0  0  0  0  0  0  0  0
    1.6829    6.6395    0.0000 C   0  0  0  0  0  0  0  0  0  0  0  0
    1.1210    8.0303    0.0000 C   0  0  0  0  0  0  0  0  0  0  0  0
   -0.3644    8.2390    0.0000 C   0  0  0  0  0  0  0  0  0  0  0  0
   -1.2879    7.0570    0.0000 C   0  0  0  0  0  0  0  0  0  0  0  0
   -2.7733    7.2658    0.0000 F   0  0  0  0  0  0  0  0  0  0  0  0
   -0.7260    5.6662    0.0000 C   0  0  0  0  0  0  0  0  0  0  0  0
   -0.1459    3.7548    0.0000 C   0  0  0  0  0  0  0  0  0  0  0  0
   -0.6094    2.3282    0.0000 C   0  0  0  0  0  0  0  0  0  0  0  0
    0.3943    1.2135    0.0000 C   0  0  0  0  0  0  0  0  0  0  0  0
    1.8615    1.5254    0.0000 C   0  0  0  0  0  0  0  0  0  0  0  0
    2.3250    2.9520    0.0000 C   0  0  0  0  0  0  0  0  0  0  0  0
    1.2760    0.0000    0.0000 O   0  0  0  0  0  0  0  0  0  0  0  0
    0.3943   -1.2135    0.0000 C   0  0  0  0  0  0  0  0  0  0  0  0
   -1.0323   -0.7500    0.0000 C   0  0  0  0  0  0  0  0  0  0  0  0
   -1.0323    0.7500    0.0000 O   0  0  0  0  0  0  0  0  0  0  0  0
    5.1899    4.9522    0.0000 N   0  0  0  0  0  0  0  0  0  0  0  0
    6.5143    4.2480    0.0000 C   0  0  0  0  0  0  0  0  0  0  0  0
  1  2  2  0
  2  3  1  0
  3  4  1  0
  2  5  1  0
  5  6  2  0
  6  7  1  0
  7  8  2  0
  8  9  1  0
  9 10  1  0
 10 11  1  0
 11 12  2  0
 12 13  1  0
 13 14  2  0
 14 15  1  0
 15 16  1  0
 15 17  2  0
 10 18  1  0
 18 19  1  0
 19 20  1  0
 20 21  1  0
 21 22  1  0
 20 23  1  0
 23 24  1  0
 24 25  1  0
 25 26  1  0
  8 27  1  0
 27 28  2  0
 28  5  1  0
 22 10  1  0
 17 11  1  0
 26 20  1  0
M  END
>  <molecule_chembl_id>  (477) 
CHEMBL3903253

>  <canonical_smiles>  (477) 
O=C(NO)c1cnc(NC2(c3cccc(F)c3)CCC3(CC2)OCCO3)nc1

>  <pchembl_value_mean>  (477) 
6.08

>  <document_chembl_id>  (477) 
CHEMBL3886954

$$$$

     RDKit          2D

 41 43  0  0  0  0  0  0  0  0999 V2000
   22.7824    8.0713    0.0000 C   0  0  0  0  0  0  0  0  0  0  0  0
   21.7217    7.0106    0.0000 C   0  0  0  0  0  0  0  0  0  0  0  0
   20.2728    7.3989    0.0000 C   0  0  0  0  0  0  0  0  0  0  0  0
   19.2122    6.3382    0.0000 C   0  0  0  0  0  0  0  0  0  0  0  0
   17.7633    6.7264    0.0000 C   0  0  0  0  0  0  0  0  0  0  0  0
   16.7026    5.6658    0.0000 C   0  0  0  0  0  0  0  0  0  0  0  0
   15.2537    6.0540    0.0000 C   0  0  0  0  0  0  0  0  0  0  0  0
   14.1931    4.9933    0.0000 C   0  0  0  0  0  0  0  0  0  0  0  0
   14.5813    3.5444    0.0000 O   0  0  0  0  0  0  0  0  0  0  0  0
   12.7442    5.3816    0.0000 S   0  0  0  0  0  0  0  0  0  0  0  0
   11.6835    4.3209    0.0000 C   0  0  0  0  0  0  0  0  0  0  0  0
   10.2346    4.7091    0.0000 C   0  0  0  0  0  0  0  0  0  0  0  0
    9.1740    3.6485    0.0000 C   0  0  0  0  0  0  0  0  0  0  0  0
    7.7251    4.0367    0.0000 C   0  0  0  0  0  0  0  0  0  0  0  0
    6.6644    2.9760    0.0000 C   0  0  0  0  0  0  0  0  0  0  0  0
    5.4172    3.8094    0.0000 C   0  0  0  0  0  0  0  0  0  0  0  0
    3.9460    4.1020    0.0000 C   0  0  0  0  0  0  0  0  0  0  0  0
    3.9460    5.6020    0.0000 O   0  0  0  0  0  0  0  0  0  0  0  0
    2.4749    3.8094    0.0000 N   0  0  0  0  0  0  0  0  0  0  0  0
    1.2277    2.9760    0.0000 C   0  0  0  0  0  0  0  0  0  0  0  0
    0.3943    1.2135    0.0000 C   0  0  0  0  0  0  0  0  0  0  0  0
    1.2760    0.0000    0.0000 N   0  0  0  0  0  0  0  0  0  0  0  0
    0.3943   -1.2135    0.0000 C   0  0  0  0  0  0  0  0  0  0  0  0
   -1.0323   -0.7500    0.0000 C   0  0  0  0  0  0  0  0  0  0  0  0
   -1.0323    0.7500    0.0000 S   0  0  0  0  0  0  0  0  0  0  0  0
    1.2277   -2.4607    0.0000 C   0  0  0  0  0  0  0  0  0  0  0  0
    2.4749   -3.2941    0.0000 N   0  0  0  0  0  0  0  0  0  0  0  0
    3.9460   -3.5867    0.0000 C   0  0  0  0  0  0  0  0  0  0  0  0
    3.9460   -5.0867    0.0000 C   0  0  0  0  0  0  0  0  0  0  0  0
    2.9719   -4.7273    0.0000 C   0  0  0  0  0  0  0  0  0  0  0  0
    1.5860   -4.1533    0.0000 S   0  0  0  0  0  0  0  0  0  0  0  0
    5.4172   -3.2941    0.0000 C   0  0  0  0  0  0  0  0  0  0  0  0
    5.9912   -4.6799    0.0000 O   0  0  0  0  0  0  0  0  0  0  0  0
    6.6644   -2.4607    0.0000 N   0  0  0  0  0  0  0  0  0  0  0  0
    7.4978   -1.2135    0.0000 C   0  0  0  0  0  0  0  0  0  0  0  0
    8.8836   -1.7876    0.0000 C   0  0  0  0  0  0  0  0  0  0  0  0
    9.0794   -3.2747    0.0000 C   0  0  0  0  0  0  0  0  0  0  0  0
   10.0736   -0.8744    0.0000 C   0  0  0  0  0  0  0  0  0  0  0  0
    7.7904    0.2577    0.0000 C   0  0  0  0  0  0  0  0  0  0  0  0
    9.2904    0.2577    0.0000 O   0  0  0  0  0  0  0  0  0  0  0  0
    7.4978    1.7288    0.0000 N   0  0  0  0  0  0  0  0  0  0  0  0
  1  2  1  0
  2  3  1  0
  3  4  1  0
  4  5  1  0
  5  6  1  0
  6  7  1  0
  7  8  1  0
  8  9  2  0
  8 10  1  0
 10 11  1  0
 11 12  1  0
 12 13  1  0
 13 14  2  3
 14 15  1  0
 15 16  1  0
 16 17  1  0
 17 18  2  0
 17 19  1  0
 19 20  1  0
 20 21  1  0
 21 22  2  0
 22 23  1  0
 23 24  2  0
 24 25  1  0
 23 26  1  0
 26 27  2  0
 27 28  1  0
 28 29  1  0
 28 30  1  0
 30 31  1  0
 28 32  1  0
 32 33  2  0
 32 34  1  0
 34 35  1  0
 35 36  1  0
 36 37  1  0
 36 38  1  0
 35 39  1  0
 39 40  2  0
 39 41  1  0
 41 15  1  0
 25 21  1  0
 31 26  1  0
M  END
>  <molecule_chembl_id>  (478) 
CHEMBL3593406

>  <canonical_smiles>  (478) 
CCCCCCCC(=O)SCCC=CC1CC(=O)NCc2nc(cs2)C2=NC(C)(CS2)C(=O)NC(C(C)C)C(=O)N1

>  <pchembl_value_mean>  (478) 
6.08

>  <document_chembl_id>  (478) 
CHEMBL3593208

$$$$

     RDKit          2D

 32 35  0  0  0  0  0  0  0  0999 V2000
   -7.5000   -5.1962    0.0000 O   0  0  0  0  0  0  0  0  0  0  0  0
   -6.0000   -5.1962    0.0000 C   0  0  0  0  0  0  0  0  0  0  0  0
   -5.2500   -6.4952    0.0000 N   0  0  0  0  0  0  0  0  0  0  0  0
   -6.0000   -7.7942    0.0000 O   0  0  0  0  0  0  0  0  0  0  0  0
   -5.2500   -3.8971    0.0000 C   0  0  0  0  0  0  0  0  0  0  0  0
   -3.7500   -3.8971    0.0000 C   0  0  0  0  0  0  0  0  0  0  0  0
   -3.0000   -2.5981    0.0000 N   0  0  0  0  0  0  0  0  0  0  0  0
   -3.7500   -1.2990    0.0000 C   0  0  0  0  0  0  0  0  0  0  0  0
   -3.0000    0.0000    0.0000 N   0  0  0  0  0  0  0  0  0  0  0  0
   -3.7500    1.2990    0.0000 C   0  0  0  0  0  0  0  0  0  0  0  0
   -2.3405    1.8121    0.0000 C   0  0  0  0  0  0  0  0  0  0  0  0
   -1.1914    0.8479    0.0000 C   0  0  0  0  0  0  0  0  0  0  0  0
    0.2181    1.3609    0.0000 C   0  0  0  0  0  0  0  0  0  0  0  0
    0.4786    2.8381    0.0000 C   0  0  0  0  0  0  0  0  0  0  0  0
   -0.6704    3.8023    0.0000 C   0  0  0  0  0  0  0  0  0  0  0  0
   -2.0800    3.2893    0.0000 C   0  0  0  0  0  0  0  0  0  0  0  0
   -4.8991    0.3349    0.0000 C   0  0  0  0  0  0  0  0  0  0  0  0
   -6.3086    0.8479    0.0000 C   0  0  0  0  0  0  0  0  0  0  0  0
   -6.5691    2.3251    0.0000 N   0  0  0  0  0  0  0  0  0  0  0  0
   -7.9786    2.8381    0.0000 S   0  0  0  0  0  0  0  0  0  0  0  0
   -8.4916    1.4286    0.0000 O   0  0  0  0  0  0  0  0  0  0  0  0
   -7.4656    4.2477    0.0000 O   0  0  0  0  0  0  0  0  0  0  0  0
   -9.3882    3.3512    0.0000 C   0  0  0  0  0  0  0  0  0  0  0  0
   -9.6486    4.8284    0.0000 C   0  0  0  0  0  0  0  0  0  0  0  0
  -11.0582    5.3414    0.0000 C   0  0  0  0  0  0  0  0  0  0  0  0
  -12.2072    4.3772    0.0000 C   0  0  0  0  0  0  0  0  0  0  0  0
  -11.9468    2.9000    0.0000 C   0  0  0  0  0  0  0  0  0  0  0  0
  -10.5372    2.3870    0.0000 C   0  0  0  0  0  0  0  0  0  0  0  0
   -5.4200    3.2893    0.0000 C   0  0  0  0  0  0  0  0  0  0  0  0
   -4.0105    2.7762    0.0000 C   0  0  0  0  0  0  0  0  0  0  0  0
   -5.2500   -1.2990    0.0000 N   0  0  0  0  0  0  0  0  0  0  0  0
   -6.0000   -2.5981    0.0000 C   0  0  0  0  0  0  0  0  0  0  0  0
  1  2  2  0
  2  3  1  0
  3  4  1  0
  2  5  1  0
  5  6  2  0
  6  7  1  0
  7  8  2  0
  8  9  1  0
  9 10  1  0
 10 11  1  0
 11 12  2  0
 12 13  1  0
 13 14  2  0
 14 15  1  0
 15 16  2  0
 10 17  1  0
 17 18  1  0
 18 19  1  0
 19 20  1  0
 20 21  2  0
 20 22  2  0
 20 23  1  0
 23 24  2  0
 24 25  1  0
 25 26  2  0
 26 27  1  0
 27 28  2  0
 19 29  1  0
 29 30  1  0
  8 31  1  0
 31 32  2  0
 32  5  1  0
 30 10  1  0
 16 11  1  0
 28 23  1  0
M  END
>  <molecule_chembl_id>  (479) 
CHEMBL3947383

>  <canonical_smiles>  (479) 
O=C(NO)c1cnc(NC2(c3ccccc3)CCN(S(=O)(=O)c3ccccc3)CC2)nc1

>  <pchembl_value_mean>  (479) 
6.08

>  <document_chembl_id>  (479) 
CHEMBL3886590

$$$$

     RDKit          2D

 41 44  0  0  0  0  0  0  0  0999 V2000
    5.2500   -3.8971    0.0000 C   0  0  0  0  0  0  0  0  0  0  0  0
    3.7500   -3.8971    0.0000 C   0  0  0  0  0  0  0  0  0  0  0  0
    3.0000   -2.5981    0.0000 O   0  0  0  0  0  0  0  0  0  0  0  0
    1.5000   -2.5981    0.0000 C   0  0  0  0  0  0  0  0  0  0  0  0
    0.7500   -3.8971    0.0000 C   0  0  0  0  0  0  0  0  0  0  0  0
   -0.7500   -3.8971    0.0000 C   0  0  0  0  0  0  0  0  0  0  0  0
   -1.5000   -5.1962    0.0000 N   0  0  0  0  0  0  0  0  0  0  0  0
   -3.0000   -5.1962    0.0000 C   0  0  0  0  0  0  0  0  0  0  0  0
   -3.7500   -3.8971    0.0000 O   0  0  0  0  0  0  0  0  0  0  0  0
   -3.7500   -6.4952    0.0000 C   0  0  0  0  0  0  0  0  0  0  0  0
   -5.2500   -6.4952    0.0000 C   0  0  0  0  0  0  0  0  0  0  0  0
   -6.0000   -7.7942    0.0000 C   0  0  0  0  0  0  0  0  0  0  0  0
   -7.5000   -7.7942    0.0000 C   0  0  0  0  0  0  0  0  0  0  0  0
   -8.2500   -9.0933    0.0000 C   0  0  0  0  0  0  0  0  0  0  0  0
   -9.7500   -9.0933    0.0000 C   0  0  0  0  0  0  0  0  0  0  0  0
  -10.5000  -10.3923    0.0000 C   0  0  0  0  0  0  0  0  0  0  0  0
   -9.7500  -11.6913    0.0000 O   0  0  0  0  0  0  0  0  0  0  0  0
  -12.0000  -10.3923    0.0000 N   0  0  0  0  0  0  0  0  0  0  0  0
  -12.7500  -11.6913    0.0000 C   0  0  0  0  0  0  0  0  0  0  0  0
  -14.2500  -11.6913    0.0000 C   0  0  0  0  0  0  0  0  0  0  0  0
  -15.0000  -12.9904    0.0000 C   0  0  0  0  0  0  0  0  0  0  0  0
  -16.5000  -12.9904    0.0000 C   0  0  0  0  0  0  0  0  0  0  0  0
  -17.2500  -11.6913    0.0000 C   0  0  0  0  0  0  0  0  0  0  0  0
  -18.7500  -11.6913    0.0000 C   0  0  0  0  0  0  0  0  0  0  0  0
  -19.5000  -12.9904    0.0000 C   0  0  0  0  0  0  0  0  0  0  0  0
  -18.7500  -14.2894    0.0000 C   0  0  0  0  0  0  0  0  0  0  0  0
  -17.2500  -14.2894    0.0000 C   0  0  0  0  0  0  0  0  0  0  0  0
  -14.2500  -14.2894    0.0000 C   0  0  0  0  0  0  0  0  0  0  0  0
  -12.7500  -14.2894    0.0000 C   0  0  0  0  0  0  0  0  0  0  0  0
  -12.0000  -12.9904    0.0000 C   0  0  0  0  0  0  0  0  0  0  0  0
  -10.5000  -12.9904    0.0000 N   0  0  0  0  0  0  0  0  0  0  0  0
   -1.5000   -2.5981    0.0000 C   0  0  0  0  0  0  0  0  0  0  0  0
   -0.7500   -1.2990    0.0000 C   0  0  0  0  0  0  0  0  0  0  0  0
    0.7500   -1.2990    0.0000 C   0  0  0  0  0  0  0  0  0  0  0  0
    1.5000    0.0000    0.0000 O   0  0  0  0  0  0  0  0  0  0  0  0
    0.7500    1.2990    0.0000 C   0  0  0  0  0  0  0  0  0  0  0  0
   -0.7500    1.2990    0.0000 C   0  0  0  0  0  0  0  0  0  0  0  0
   -1.5000    2.5981    0.0000 N   0  0  0  0  0  4  0  0  0  0  0  0
   -3.0000    2.5981    0.0000 O   0  0  0  0  0  0  0  0  0  0  0  0
   -0.7500    3.8971    0.0000 O   0  0  0  0  0  1  0  0  0  0  0  0
   -1.5000    0.0000    0.0000 C   0  0  0  0  0  0  0  0  0  0  0  0
  1  2  1  0
  2  3  1  0
  3  4  1  0
  4  5  2  0
  5  6  1  0
  6  7  1  0
  7  8  1  0
  8  9  2  0
  8 10  1  0
 10 11  1  0
 11 12  1  0
 12 13  1  0
 13 14  1  0
 14 15  1  0
 15 16  1  0
 16 17  2  0
 16 18  1  0
 18 19  1  0
 19 20  2  0
 20 21  1  0
 21 22  1  0
 22 23  2  0
 23 24  1  0
 24 25  2  0
 25 26  1  0
 26 27  2  0
 21 28  2  0
 28 29  1  0
 29 30  2  0
 30 31  1  0
  6 32  2  0
 32 33  1  0
 33 34  2  0
 34 35  1  0
 35 36  1  0
 36 37  1  0
 37 38  1  0
 38 39  2  0
 38 40  1  0
 37 41  2  0
 34  4  1  0
 30 19  1  0
 41 33  1  0
 27 22  1  0
M  CHG  2  38   1  40  -1
M  END
>  <molecule_chembl_id>  (480) 
CHEMBL4095143

>  <canonical_smiles>  (480) 
CCOc1cc(NC(=O)CCCCCCC(=O)Nc2cc(-c3ccccc3)ccc2N)cc2c1OCC([N+](=O)[O-])=C2

>  <pchembl_value_mean>  (480) 
6.08

>  <document_chembl_id>  (480) 
CHEMBL4052685

$$$$

     RDKit          2D

 25 27  0  0  0  0  0  0  0  0999 V2000
    3.7500    1.2990    0.0000 O   0  0  0  0  0  0  0  0  0  0  0  0
    3.0000    0.0000    0.0000 C   0  0  0  0  0  0  0  0  0  0  0  0
    3.7500   -1.2990    0.0000 N   0  0  0  0  0  0  0  0  0  0  0  0
    5.2500   -1.2990    0.0000 O   0  0  0  0  0  0  0  0  0  0  0  0
    1.5000    0.0000    0.0000 C   0  0  0  0  0  0  0  0  0  0  0  0
    0.7500   -1.2990    0.0000 C   0  0  0  0  0  0  0  0  0  0  0  0
   -0.7500   -1.2990    0.0000 N   0  0  0  0  0  0  0  0  0  0  0  0
   -1.5000    0.0000    0.0000 C   0  0  0  0  0  0  0  0  0  0  0  0
   -3.0000    0.0000    0.0000 N   0  0  0  0  0  0  0  0  0  0  0  0
   -3.7500    1.2990    0.0000 C   0  0  0  0  0  0  0  0  0  0  0  0
   -5.2500    1.2990    0.0000 C   0  0  0  0  0  0  0  0  0  0  0  0
   -6.0000    2.5981    0.0000 C   0  0  0  0  0  0  0  0  0  0  0  0
   -5.2500    3.8971    0.0000 C   0  0  0  0  0  0  0  0  0  0  0  0
   -6.0000    5.1962    0.0000 C   0  0  0  0  0  0  0  0  0  0  0  0
   -7.5000    5.1962    0.0000 C   0  0  0  0  0  0  0  0  0  0  0  0
   -8.2500    3.8971    0.0000 C   0  0  0  0  0  0  0  0  0  0  0  0
   -7.5000    2.5981    0.0000 C   0  0  0  0  0  0  0  0  0  0  0  0
   -8.2500    1.2990    0.0000 C   0  0  0  0  0  0  0  0  0  0  0  0
   -9.7500    1.2990    0.0000 C   0  0  0  0  0  0  0  0  0  0  0  0
  -10.5000    0.0000    0.0000 C   0  0  0  0  0  0  0  0  0  0  0  0
   -9.7500   -1.2990    0.0000 C   0  0  0  0  0  0  0  0  0  0  0  0
   -8.2500   -1.2990    0.0000 C   0  0  0  0  0  0  0  0  0  0  0  0
   -7.5000    0.0000    0.0000 C   0  0  0  0  0  0  0  0  0  0  0  0
   -0.7500    1.2990    0.0000 N   0  0  0  0  0  0  0  0  0  0  0  0
    0.7500    1.2990    0.0000 C   0  0  0  0  0  0  0  0  0  0  0  0
  1  2  2  0
  2  3  1  0
  3  4  1  0
  2  5  1  0
  5  6  2  0
  6  7  1  0
  7  8  2  0
  8  9  1  0
  9 10  1  0
 10 11  1  0
 11 12  1  0
 12 13  2  0
 13 14  1  0
 14 15  2  0
 15 16  1  0
 16 17  2  0
 17 18  1  0
 18 19  2  0
 19 20  1  0
 20 21  2  0
 21 22  1  0
 22 23  2  0
  8 24  1  0
 24 25  2  0
 25  5  1  0
 17 12  1  0
 23 18  1  0
M  END
>  <molecule_chembl_id>  (481) 
CHEMBL3655941

>  <canonical_smiles>  (481) 
O=C(NO)c1cnc(NCCc2ccccc2-c2ccccc2)nc1

>  <pchembl_value_mean>  (481) 
6.09

>  <document_chembl_id>  (481) 
CHEMBL3639071

$$$$

     RDKit          2D

 23 24  0  0  0  0  0  0  0  0999 V2000
    5.2500   -1.2990    0.0000 C   0  0  0  0  0  0  0  0  0  0  0  0
    3.7500   -1.2990    0.0000 C   0  0  0  0  0  0  0  0  0  0  0  0
    3.0000    0.0000    0.0000 O   0  0  0  0  0  0  0  0  0  0  0  0
    1.5000    0.0000    0.0000 N   0  0  0  0  0  0  0  0  0  0  0  0
    0.7500   -1.2990    0.0000 C   0  0  0  0  0  0  0  0  0  0  0  0
   -0.7500   -1.2990    0.0000 C   0  0  0  0  0  0  0  0  0  0  0  0
   -1.5000    0.0000    0.0000 C   0  0  0  0  0  0  0  0  0  0  0  0
   -2.6491    0.9642    0.0000 N   0  0  0  0  0  0  0  0  0  0  0  0
   -2.3886    2.4414    0.0000 C   0  0  0  0  0  0  0  0  0  0  0  0
   -0.9791    2.9544    0.0000 N   0  0  0  0  0  0  0  0  0  0  0  0
   -0.7186    4.4316    0.0000 C   0  0  0  0  0  0  0  0  0  0  0  0
   -1.8676    5.3958    0.0000 C   0  0  0  0  0  0  0  0  0  0  0  0
   -1.6072    6.8730    0.0000 C   0  0  0  0  0  0  0  0  0  0  0  0
   -2.7562    7.8372    0.0000 O   0  0  0  0  0  0  0  0  0  0  0  0
   -0.1976    7.3861    0.0000 N   0  0  0  0  0  0  0  0  0  0  0  0
    0.0628    8.8633    0.0000 O   0  0  0  0  0  0  0  0  0  0  0  0
   -3.2772    4.8828    0.0000 C   0  0  0  0  0  0  0  0  0  0  0  0
   -3.5377    3.4056    0.0000 N   0  0  0  0  0  0  0  0  0  0  0  0
   -2.6491   -0.9642    0.0000 C   0  0  0  0  0  0  0  0  0  0  0  0
   -4.0586   -0.4512    0.0000 C   0  0  0  0  0  0  0  0  0  0  0  0
   -2.3886   -2.4414    0.0000 C   0  0  0  0  0  0  0  0  0  0  0  0
   -0.7500    1.2990    0.0000 C   0  0  0  0  0  0  0  0  0  0  0  0
    0.7500    1.2990    0.0000 C   0  0  0  0  0  0  0  0  0  0  0  0
  1  2  1  0
  2  3  1  0
  3  4  1  0
  4  5  1  0
  5  6  1  0
  6  7  1  0
  7  8  1  0
  8  9  1  0
  9 10  2  0
 10 11  1  0
 11 12  2  0
 12 13  1  0
 13 14  2  0
 13 15  1  0
 15 16  1  0
 12 17  1  0
 17 18  2  0
  7 19  1  0
 19 20  1  0
 19 21  1  0
  7 22  1  0
 22 23  1  0
 23  4  1  0
 18  9  1  0
M  END
>  <molecule_chembl_id>  (482) 
CHEMBL3892427

>  <canonical_smiles>  (482) 
CCON1CCC(Nc2ncc(C(=O)NO)cn2)(C(C)C)CC1

>  <pchembl_value_mean>  (482) 
6.09

>  <document_chembl_id>  (482) 
CHEMBL3886590

$$$$

     RDKit          2D

 23 25  0  0  0  0  0  0  0  0999 V2000
    3.7500    1.2990    0.0000 O   0  0  0  0  0  0  0  0  0  0  0  0
    3.0000    0.0000    0.0000 C   0  0  0  0  0  0  0  0  0  0  0  0
    3.7500   -1.2990    0.0000 N   0  0  0  0  0  0  0  0  0  0  0  0
    5.2500   -1.2990    0.0000 O   0  0  0  0  0  0  0  0  0  0  0  0
    1.5000    0.0000    0.0000 C   0  0  0  0  0  0  0  0  0  0  0  0
    0.7500   -1.2990    0.0000 C   0  0  0  0  0  0  0  0  0  0  0  0
   -0.7500   -1.2990    0.0000 N   0  0  0  0  0  0  0  0  0  0  0  0
   -1.5000    0.0000    0.0000 C   0  0  0  0  0  0  0  0  0  0  0  0
   -3.0000    0.0000    0.0000 N   0  0  0  0  0  0  0  0  0  0  0  0
   -3.7500    1.2990    0.0000 C   0  0  0  0  0  0  0  0  0  0  0  0
   -3.0000    2.5981    0.0000 C   0  0  0  0  0  0  0  0  0  0  0  0
   -3.7500    3.8971    0.0000 C   0  0  0  0  0  0  0  0  0  0  0  0
   -5.2500    3.8971    0.0000 C   0  0  0  0  0  0  0  0  0  0  0  0
   -6.0000    2.5981    0.0000 C   0  0  0  0  0  0  0  0  0  0  0  0
   -7.5000    2.5981    0.0000 N   0  0  0  0  0  0  0  0  0  0  0  0
   -8.2500    3.8971    0.0000 C   0  0  0  0  0  0  0  0  0  0  0  0
   -9.7500    3.8971    0.0000 C   0  0  0  0  0  0  0  0  0  0  0  0
  -10.5000    2.5981    0.0000 O   0  0  0  0  0  0  0  0  0  0  0  0
   -9.7500    1.2990    0.0000 C   0  0  0  0  0  0  0  0  0  0  0  0
   -8.2500    1.2990    0.0000 C   0  0  0  0  0  0  0  0  0  0  0  0
   -5.2500    1.2990    0.0000 C   0  0  0  0  0  0  0  0  0  0  0  0
   -0.7500    1.2990    0.0000 N   0  0  0  0  0  0  0  0  0  0  0  0
    0.7500    1.2990    0.0000 C   0  0  0  0  0  0  0  0  0  0  0  0
  1  2  2  0
  2  3  1  0
  3  4  1  0
  2  5  1  0
  5  6  2  0
  6  7  1  0
  7  8  2  0
  8  9  1  0
  9 10  1  0
 10 11  2  0
 11 12  1  0
 12 13  2  0
 13 14  1  0
 14 15  1  0
 15 16  1  0
 16 17  1  0
 17 18  1  0
 18 19  1  0
 19 20  1  0
 14 21  2  0
  8 22  1  0
 22 23  2  0
 23  5  1  0
 21 10  1  0
 20 15  1  0
M  END
>  <molecule_chembl_id>  (483) 
CHEMBL3655912

>  <canonical_smiles>  (483) 
O=C(NO)c1cnc(Nc2cccc(N3CCOCC3)c2)nc1

>  <pchembl_value_mean>  (483) 
6.09

>  <document_chembl_id>  (483) 
CHEMBL3639071

$$$$

     RDKit          2D

 31 35  0  0  0  0  0  0  0  0999 V2000
   -3.7500   -9.0933    0.0000 C   0  0  0  0  0  0  0  0  0  0  0  0
   -3.0000   -7.7942    0.0000 N   0  0  0  0  0  0  0  0  0  0  0  0
   -3.7500   -6.4952    0.0000 C   0  0  0  0  0  0  0  0  0  0  0  0
   -3.0000   -5.1962    0.0000 C   0  0  0  0  0  0  0  0  0  0  0  0
   -1.5000   -5.1962    0.0000 N   0  0  0  0  0  0  0  0  0  0  0  0
   -0.7500   -3.8971    0.0000 C   0  0  0  0  0  0  0  0  0  0  0  0
    0.7500   -3.8971    0.0000 C   0  0  0  0  0  0  0  0  0  0  0  0
    1.5000   -2.5981    0.0000 C   0  0  0  0  0  0  0  0  0  0  0  0
    0.7500   -1.2990    0.0000 C   0  0  0  0  0  0  0  0  0  0  0  0
    1.5000    0.0000    0.0000 C   0  0  0  0  0  0  0  0  0  0  0  0
    0.7500    1.2990    0.0000 C   0  0  0  0  0  0  0  0  0  0  0  0
    1.5000    2.5981    0.0000 C   0  0  0  0  0  0  0  0  0  0  0  0
    0.7500    3.8971    0.0000 O   0  0  0  0  0  0  0  0  0  0  0  0
    3.0000    2.5981    0.0000 N   0  0  0  0  0  0  0  0  0  0  0  0
    3.7500    3.8971    0.0000 C   0  0  0  0  0  0  0  0  0  0  0  0
    5.2500    3.8971    0.0000 C   0  0  0  0  0  0  0  0  0  0  0  0
    6.0000    5.1962    0.0000 C   0  0  0  0  0  0  0  0  0  0  0  0
    5.2500    6.4952    0.0000 C   0  0  0  0  0  0  0  0  0  0  0  0
    6.0000    7.7942    0.0000 F   0  0  0  0  0  0  0  0  0  0  0  0
    3.7500    6.4952    0.0000 C   0  0  0  0  0  0  0  0  0  0  0  0
    3.0000    5.1962    0.0000 C   0  0  0  0  0  0  0  0  0  0  0  0
    1.5000    5.1962    0.0000 N   0  0  0  0  0  0  0  0  0  0  0  0
   -0.7500    1.2990    0.0000 C   0  0  0  0  0  0  0  0  0  0  0  0
   -1.5000    0.0000    0.0000 N   0  0  0  0  0  0  0  0  0  0  0  0
   -0.7500   -1.2990    0.0000 C   0  0  0  0  0  0  0  0  0  0  0  0
   -1.5000   -2.5981    0.0000 C   0  0  0  0  0  0  0  0  0  0  0  0
   -3.0000   -2.5981    0.0000 C   0  0  0  0  0  0  0  0  0  0  0  0
   -4.2990   -3.3481    0.0000 C   0  0  0  0  0  0  0  0  0  0  0  0
   -4.2990   -1.8481    0.0000 C   0  0  0  0  0  0  0  0  0  0  0  0
   -0.7500   -6.4952    0.0000 C   0  0  0  0  0  0  0  0  0  0  0  0
   -1.5000   -7.7942    0.0000 C   0  0  0  0  0  0  0  0  0  0  0  0
  1  2  1  0
  2  3  1  0
  3  4  1  0
  4  5  1  0
  5  6  1  0
  6  7  2  0
  7  8  1  0
  8  9  2  0
  9 10  1  0
 10 11  2  0
 11 12  1  0
 12 13  2  0
 12 14  1  0
 14 15  1  0
 15 16  2  0
 16 17  1  0
 17 18  2  0
 18 19  1  0
 18 20  1  0
 20 21  2  0
 21 22  1  0
 11 23  1  0
 23 24  2  0
 24 25  1  0
 25 26  2  0
 26 27  1  0
 27 28  1  0
 28 29  1  0
  5 30  1  0
 30 31  1  0
 31  2  1  0
 26  6  1  0
 29 27  1  0
 25  9  1  0
 21 15  1  0
M  END
>  <molecule_chembl_id>  (484) 
CHEMBL3664026

>  <canonical_smiles>  (484) 
CN1CCN(c2ccc3cc(C(=O)Nc4ccc(F)cc4N)cnc3c2C2CC2)CC1

>  <pchembl_value_mean>  (484) 
6.09

>  <document_chembl_id>  (484) 
CHEMBL3639382

$$$$

     RDKit          2D

 23 24  0  0  0  0  0  0  0  0999 V2000
    3.7500   -1.2990    0.0000 C   0  0  0  0  0  0  0  0  0  0  0  0
    3.0000    0.0000    0.0000 O   0  0  0  0  0  0  0  0  0  0  0  0
    1.5000    0.0000    0.0000 C   0  0  0  0  0  0  0  0  0  0  0  0
    0.7500   -1.2990    0.0000 C   0  0  0  0  0  0  0  0  0  0  0  0
   -0.7500   -1.2990    0.0000 C   0  0  0  0  0  0  0  0  0  0  0  0
   -1.5000    0.0000    0.0000 C   0  0  0  0  0  0  0  0  0  0  0  0
   -0.7500    1.2990    0.0000 C   0  0  0  0  0  0  0  0  0  0  0  0
   -1.5000    2.5981    0.0000 C   0  0  0  0  0  0  0  0  0  0  0  0
   -0.7500    3.8971    0.0000 N   0  0  0  0  0  0  0  0  0  0  0  0
   -1.5000    5.1962    0.0000 C   0  0  0  0  0  0  0  0  0  0  0  0
   -0.7500    6.4952    0.0000 C   0  0  0  0  0  0  0  0  0  0  0  0
    0.7500    6.4952    0.0000 C   0  0  0  0  0  0  0  0  0  0  0  0
    1.5000    7.7942    0.0000 C   0  0  0  0  0  0  0  0  0  0  0  0
    0.7500    9.0933    0.0000 C   0  0  0  0  0  0  0  0  0  0  0  0
    1.5000   10.3923    0.0000 C   0  0  0  0  0  0  0  0  0  0  0  0
    3.0000   10.3923    0.0000 C   0  0  0  0  0  0  0  0  0  0  0  0
    3.7500   11.6913    0.0000 C   0  0  0  0  0  0  0  0  0  0  0  0
    3.0000   12.9904    0.0000 O   0  0  0  0  0  0  0  0  0  0  0  0
    5.2500   11.6913    0.0000 N   0  0  0  0  0  0  0  0  0  0  0  0
    6.0000   12.9904    0.0000 O   0  0  0  0  0  0  0  0  0  0  0  0
   -0.7500    9.0933    0.0000 C   0  0  0  0  0  0  0  0  0  0  0  0
   -1.5000    7.7942    0.0000 C   0  0  0  0  0  0  0  0  0  0  0  0
    0.7500    1.2990    0.0000 C   0  0  0  0  0  0  0  0  0  0  0  0
  1  2  1  0
  2  3  1  0
  3  4  2  0
  4  5  1  0
  5  6  2  0
  6  7  1  0
  7  8  1  0
  8  9  1  0
  9 10  1  0
 10 11  1  0
 11 12  2  0
 12 13  1  0
 13 14  2  0
 14 15  1  0
 15 16  2  3
 16 17  1  0
 17 18  2  0
 17 19  1  0
 19 20  1  0
 14 21  1  0
 21 22  2  0
  7 23  2  0
 23  3  1  0
 22 11  1  0
M  END
>  <molecule_chembl_id>  (485) 
CHEMBL4573804

>  <canonical_smiles>  (485) 
COc1cccc(CNCc2ccc(C=CC(=O)NO)cc2)c1

>  <pchembl_value_mean>  (485) 
6.09

>  <document_chembl_id>  (485) 
CHEMBL4385666

$$$$

     RDKit          2D

 32 35  0  0  0  0  0  0  0  0999 V2000
    3.0000    0.0000    0.0000 C   0  0  0  0  0  0  0  0  0  0  0  0
    1.5000    0.0000    0.0000 N   0  0  0  0  0  0  0  0  0  0  0  0
    0.7500   -1.2990    0.0000 C   0  0  0  0  0  0  0  0  0  0  0  0
   -0.7500   -1.2990    0.0000 C   0  0  0  0  0  0  0  0  0  0  0  0
   -1.5000    0.0000    0.0000 N   0  0  0  0  0  0  0  0  0  0  0  0
   -3.0000    0.0000    0.0000 C   0  0  0  0  0  0  0  0  0  0  0  0
   -3.7500   -1.2990    0.0000 O   0  0  0  0  0  0  0  0  0  0  0  0
   -3.7500    1.2990    0.0000 N   0  0  0  0  0  0  0  0  0  0  0  0
   -5.2500    1.2990    0.0000 C   0  0  0  0  0  0  0  0  0  0  0  0
   -6.0000    2.5981    0.0000 C   0  0  0  0  0  0  0  0  0  0  0  0
   -5.2500    3.8971    0.0000 C   0  0  0  0  0  0  0  0  0  0  0  0
   -6.0000    5.1962    0.0000 C   0  0  0  0  0  0  0  0  0  0  0  0
   -7.5000    5.1962    0.0000 C   0  0  0  0  0  0  0  0  0  0  0  0
   -8.2500    6.4952    0.0000 C   0  0  0  0  0  0  0  0  0  0  0  0
   -9.7500    6.4952    0.0000 O   0  0  0  0  0  0  0  0  0  0  0  0
   -7.5000    7.7942    0.0000 N   0  0  0  0  0  0  0  0  0  0  0  0
   -8.2500    9.0933    0.0000 C   0  0  0  0  0  0  0  0  0  0  0  0
   -7.5000   10.3923    0.0000 C   0  0  0  0  0  0  0  0  0  0  0  0
   -8.2500   11.6913    0.0000 C   0  0  0  0  0  0  0  0  0  0  0  0
   -7.5000   12.9904    0.0000 C   0  0  0  0  0  0  0  0  0  0  0  0
   -8.1101   14.3607    0.0000 C   0  0  0  0  0  0  0  0  0  0  0  0
   -6.9954   15.3644    0.0000 C   0  0  0  0  0  0  0  0  0  0  0  0
   -5.6963   14.6144    0.0000 C   0  0  0  0  0  0  0  0  0  0  0  0
   -6.0082   13.1472    0.0000 S   0  0  0  0  0  0  0  0  0  0  0  0
   -9.7500   11.6913    0.0000 C   0  0  0  0  0  0  0  0  0  0  0  0
  -10.5000   10.3923    0.0000 C   0  0  0  0  0  0  0  0  0  0  0  0
   -9.7500    9.0933    0.0000 C   0  0  0  0  0  0  0  0  0  0  0  0
  -10.5000    7.7942    0.0000 N   0  0  0  0  0  0  0  0  0  0  0  0
   -8.2500    3.8971    0.0000 C   0  0  0  0  0  0  0  0  0  0  0  0
   -7.5000    2.5981    0.0000 C   0  0  0  0  0  0  0  0  0  0  0  0
   -0.7500    1.2990    0.0000 C   0  0  0  0  0  0  0  0  0  0  0  0
    0.7500    1.2990    0.0000 C   0  0  0  0  0  0  0  0  0  0  0  0
  1  2  1  0
  2  3  1  0
  3  4  1  0
  4  5  1  0
  5  6  1  0
  6  7  2  0
  6  8  1  0
  8  9  1  0
  9 10  1  0
 10 11  2  0
 11 12  1  0
 12 13  2  0
 13 14  1  0
 14 15  2  0
 14 16  1  0
 16 17  1  0
 17 18  2  0
 18 19  1  0
 19 20  1  0
 20 21  2  0
 21 22  1  0
 22 23  2  0
 23 24  1  0
 19 25  2  0
 25 26  1  0
 26 27  2  0
 27 28  1  0
 13 29  1  0
 29 30  2  0
  5 31  1  0
 31 32  1  0
 32  2  1  0
 30 10  1  0
 27 17  1  0
 24 20  1  0
M  END
>  <molecule_chembl_id>  (486) 
CHEMBL1957459

>  <canonical_smiles>  (486) 
CN1CCN(C(=O)NCc2ccc(C(=O)Nc3cc(-c4cccs4)ccc3N)cc2)CC1

>  <pchembl_value_mean>  (486) 
6.1

>  <document_chembl_id>  (486) 
CHEMBL1955769

$$$$

     RDKit          2D

 34 37  0  0  0  0  0  0  0  0999 V2000
   -4.3786   -5.1199    0.0000 C   0  0  0  0  0  0  0  0  0  0  0  0
   -2.9520   -4.6564    0.0000 C   0  0  0  0  0  0  0  0  0  0  0  0
   -2.6401   -3.1891    0.0000 C   0  0  0  0  0  0  0  0  0  0  0  0
   -1.2135   -2.7256    0.0000 C   0  0  0  0  0  0  0  0  0  0  0  0
   -0.0000   -3.6073    0.0000 N   0  0  0  0  0  0  0  0  0  0  0  0
    1.2135   -2.7256    0.0000 N   0  0  0  0  0  0  0  0  0  0  0  0
    2.6401   -3.1891    0.0000 C   0  0  0  0  0  0  0  0  0  0  0  0
    0.7500   -1.2990    0.0000 C   0  0  0  0  0  0  0  0  0  0  0  0
    1.5000    0.0000    0.0000 C   0  0  0  0  0  0  0  0  0  0  0  0
    3.0000    0.0000    0.0000 O   0  0  0  0  0  0  0  0  0  0  0  0
    0.7500    1.2990    0.0000 N   0  0  0  0  0  0  0  0  0  0  0  0
   -0.7500    1.2990    0.0000 C   0  0  0  0  0  0  0  0  0  0  0  0
   -1.5000    2.5981    0.0000 C   0  0  0  0  0  0  0  0  0  0  0  0
   -0.7500    3.8971    0.0000 C   0  0  0  0  0  0  0  0  0  0  0  0
   -1.5000    5.1962    0.0000 C   0  0  0  0  0  0  0  0  0  0  0  0
   -0.7500    6.4952    0.0000 C   0  0  0  0  0  0  0  0  0  0  0  0
   -1.5000    7.7942    0.0000 O   0  0  0  0  0  0  0  0  0  0  0  0
    0.7500    6.4952    0.0000 C   0  0  0  0  0  0  0  0  0  0  0  0
    1.6317    7.7087    0.0000 C   0  0  0  0  0  0  0  0  0  0  0  0
    3.0583    7.2452    0.0000 C   0  0  0  0  0  0  0  0  0  0  0  0
    3.0583    5.7452    0.0000 C   0  0  0  0  0  0  0  0  0  0  0  0
    4.2718    4.8635    0.0000 C   0  0  0  0  0  0  0  0  0  0  0  0
    5.6421    5.4736    0.0000 O   0  0  0  0  0  0  0  0  0  0  0  0
    4.1150    3.3717    0.0000 N   0  0  0  0  0  0  0  0  0  0  0  0
    5.3285    2.4901    0.0000 O   0  0  0  0  0  0  0  0  0  0  0  0
    1.6317    5.2817    0.0000 S   0  0  0  0  0  0  0  0  0  0  0  0
   -3.0000    5.1962    0.0000 C   0  0  0  0  0  0  0  0  0  0  0  0
   -3.7500    3.8971    0.0000 C   0  0  0  0  0  0  0  0  0  0  0  0
   -3.0000    2.5981    0.0000 C   0  0  0  0  0  0  0  0  0  0  0  0
   -3.7500    1.2990    0.0000 O   0  0  0  0  0  0  0  0  0  0  0  0
   -5.2500    1.2990    0.0000 C   0  0  0  0  0  0  0  0  0  0  0  0
   -6.0000    0.0000    0.0000 C   0  0  0  0  0  0  0  0  0  0  0  0
   -1.5000    0.0000    0.0000 N   0  0  0  0  0  0  0  0  0  0  0  0
   -0.7500   -1.2990    0.0000 C   0  0  0  0  0  0  0  0  0  0  0  0
  1  2  1  0
  2  3  1  0
  3  4  1  0
  4  5  2  0
  5  6  1  0
  6  7  1  0
  6  8  1  0
  8  9  1  0
  9 10  2  0
  9 11  1  0
 11 12  1  0
 12 13  1  0
 13 14  2  0
 14 15  1  0
 15 16  1  0
 16 17  2  0
 16 18  1  0
 18 19  2  0
 19 20  1  0
 20 21  2  0
 21 22  1  0
 22 23  2  0
 22 24  1  0
 24 25  1  0
 21 26  1  0
 15 27  2  0
 27 28  1  0
 28 29  2  0
 29 30  1  0
 30 31  1  0
 31 32  1  0
 12 33  2  0
 33 34  1  0
 34  4  1  0
 34  8  2  0
 29 13  1  0
 26 18  1  0
M  END
>  <molecule_chembl_id>  (487) 
CHEMBL4217166

>  <canonical_smiles>  (487) 
CCCc1nn(C)c2c(=O)[nH]c(-c3cc(C(=O)c4ccc(C(=O)NO)s4)ccc3OCC)nc12

>  <pchembl_value_mean>  (487) 
6.1

>  <document_chembl_id>  (487) 
CHEMBL4196089

$$$$

     RDKit          2D

 28 29  0  0  0  0  0  0  0  0999 V2000
    5.2500   -9.0933    0.0000 C   0  0  0  0  0  0  0  0  0  0  0  0
    3.7500   -9.0933    0.0000 C   0  0  0  0  0  0  0  0  0  0  0  0
    3.0000  -10.3923    0.0000 C   0  0  0  0  0  0  0  0  0  0  0  0
    3.0000   -7.7942    0.0000 C   0  0  0  0  0  0  0  0  0  0  0  0
    1.5000   -7.7942    0.0000 C   0  0  0  0  0  0  0  0  0  0  0  0
    0.7500   -6.4952    0.0000 N   0  0  0  0  0  0  0  0  0  0  0  0
    1.5000   -5.1962    0.0000 C   0  0  0  0  0  0  0  0  0  0  0  0
    3.0000   -5.1962    0.0000 O   0  0  0  0  0  0  0  0  0  0  0  0
    0.7500   -3.8971    0.0000 C   0  0  0  0  0  0  0  0  0  0  0  0
    1.5000   -2.5981    0.0000 C   0  0  0  0  0  0  0  0  0  0  0  0
    0.7500   -1.2990    0.0000 C   0  0  0  0  0  0  0  0  0  0  0  0
    1.5000    0.0000    0.0000 C   0  0  0  0  0  0  0  0  0  0  0  0
    0.7500    1.2990    0.0000 C   0  0  0  0  0  0  0  0  0  0  0  0
   -0.7500    1.2990    0.0000 C   0  0  0  0  0  0  0  0  0  0  0  0
   -1.5000    0.0000    0.0000 C   0  0  0  0  0  0  0  0  0  0  0  0
   -0.7500   -1.2990    0.0000 C   0  0  0  0  0  0  0  0  0  0  0  0
   -0.7500   -3.8971    0.0000 N   0  0  0  0  0  0  0  0  0  0  0  0
   -1.5000   -5.1962    0.0000 C   0  0  0  0  0  0  0  0  0  0  0  0
   -0.7500   -6.4952    0.0000 O   0  0  0  0  0  0  0  0  0  0  0  0
   -3.0000   -5.1962    0.0000 C   0  0  0  0  0  0  0  0  0  0  0  0
   -3.7500   -3.8971    0.0000 C   0  0  0  0  0  0  0  0  0  0  0  0
   -5.2500   -3.8971    0.0000 N   0  0  0  0  0  0  0  0  0  0  0  0
   -6.0000   -5.1962    0.0000 C   0  0  0  0  0  0  0  0  0  0  0  0
   -5.2500   -6.4952    0.0000 C   0  0  0  0  0  0  0  0  0  0  0  0
   -3.7500   -6.4952    0.0000 N   0  0  0  0  0  0  0  0  0  0  0  0
    0.7500   -9.0933    0.0000 B   0  0  0  0  0  0  0  0  0  0  0  0
    1.5000  -10.3923    0.0000 O   0  0  0  0  0  0  0  0  0  0  0  0
   -0.7500   -9.0933    0.0000 O   0  0  0  0  0  0  0  0  0  0  0  0
  1  2  1  0
  2  3  1  0
  2  4  1  0
  4  5  1  0
  5  6  1  0
  6  7  1  0
  7  8  2  0
  7  9  1  0
  9 10  1  0
 10 11  1  0
 11 12  2  0
 12 13  1  0
 13 14  2  0
 14 15  1  0
 15 16  2  0
  9 17  1  0
 17 18  1  0
 18 19  2  0
 18 20  1  0
 20 21  2  0
 21 22  1  0
 22 23  2  0
 23 24  1  0
 24 25  2  0
  5 26  1  0
 26 27  1  0
 26 28  1  0
 16 11  1  0
 25 20  1  0
M  END
>  <molecule_chembl_id>  (488) 
CHEMBL325041

>  <canonical_smiles>  (488) 
CC(C)CC(NC(=O)C(Cc1ccccc1)NC(=O)c1cnccn1)B(O)O

>  <pchembl_value_mean>  (488) 
6.1

>  <document_chembl_id>  (488) 
CHEMBL4680183

$$$$

     RDKit          2D

 41 44  0  0  0  0  0  0  0  0999 V2000
    3.0000    0.0000    0.0000 N   0  0  0  0  0  0  0  0  0  0  0  0
    1.5000    0.0000    0.0000 C   0  0  0  0  0  0  0  0  0  0  0  0
    0.7500   -1.2990    0.0000 C   0  0  0  0  0  0  0  0  0  0  0  0
   -0.7500   -1.2990    0.0000 C   0  0  0  0  0  0  0  0  0  0  0  0
   -1.5000    0.0000    0.0000 C   0  0  0  0  0  0  0  0  0  0  0  0
   -0.7500    1.2990    0.0000 C   0  0  0  0  0  0  0  0  0  0  0  0
    0.7500    1.2990    0.0000 C   0  0  0  0  0  0  0  0  0  0  0  0
    1.5000    2.5981    0.0000 N   0  0  0  0  0  0  0  0  0  0  0  0
    0.7500    3.8971    0.0000 C   0  0  0  0  0  0  0  0  0  0  0  0
   -0.7500    3.8971    0.0000 O   0  0  0  0  0  0  0  0  0  0  0  0
    1.5000    5.1962    0.0000 C   0  0  0  0  0  0  0  0  0  0  0  0
    0.7500    6.4952    0.0000 C   0  0  0  0  0  0  0  0  0  0  0  0
    1.5000    7.7942    0.0000 C   0  0  0  0  0  0  0  0  0  0  0  0
    3.0000    7.7942    0.0000 C   0  0  0  0  0  0  0  0  0  0  0  0
    3.7500    9.0933    0.0000 C   0  0  0  0  0  0  0  0  0  0  0  0
    3.0000   10.3923    0.0000 C   0  0  0  0  0  0  0  0  0  0  0  0
    3.7500   11.6913    0.0000 C   0  0  0  0  0  0  0  0  0  0  0  0
    3.0000   12.9904    0.0000 N   0  0  0  0  0  0  0  0  0  0  0  0
    3.7500   14.2894    0.0000 C   0  0  0  0  0  0  0  0  0  0  0  0
    3.0000   15.5885    0.0000 C   0  0  0  0  0  0  0  0  0  0  0  0
    3.7500   16.8875    0.0000 C   0  0  0  0  0  0  0  0  0  0  0  0
    5.2500   16.8875    0.0000 C   0  0  0  0  0  0  0  0  0  0  0  0
    6.0000   18.1865    0.0000 C   0  0  0  0  0  0  0  0  0  0  0  0
    5.2500   19.4856    0.0000 O   0  0  0  0  0  0  0  0  0  0  0  0
    3.7500   19.4856    0.0000 C   0  0  0  0  0  0  0  0  0  0  0  0
    3.0000   18.1865    0.0000 C   0  0  0  0  0  0  0  0  0  0  0  0
    5.2500   11.6913    0.0000 C   0  0  0  0  0  0  0  0  0  0  0  0
    6.0000   10.3923    0.0000 O   0  0  0  0  0  0  0  0  0  0  0  0
    6.0000   12.9904    0.0000 N   0  0  0  0  0  0  0  0  0  0  0  0
    7.5000   12.9904    0.0000 C   0  0  0  0  0  0  0  0  0  0  0  0
    8.2500   11.6913    0.0000 C   0  0  0  0  0  0  0  0  0  0  0  0
    9.7500   11.6913    0.0000 C   0  0  0  0  0  0  0  0  0  0  0  0
   10.5000   12.9904    0.0000 C   0  0  0  0  0  0  0  0  0  0  0  0
   12.0000   12.9904    0.0000 C   0  0  0  0  0  0  0  0  0  0  0  0
   13.5000   12.9904    0.0000 F   0  0  0  0  0  0  0  0  0  0  0  0
   12.0000   11.4904    0.0000 F   0  0  0  0  0  0  0  0  0  0  0  0
   12.0000   14.4904    0.0000 F   0  0  0  0  0  0  0  0  0  0  0  0
    9.7500   14.2894    0.0000 C   0  0  0  0  0  0  0  0  0  0  0  0
    8.2500   14.2894    0.0000 C   0  0  0  0  0  0  0  0  0  0  0  0
    1.5000   10.3923    0.0000 C   0  0  0  0  0  0  0  0  0  0  0  0
    0.7500    9.0933    0.0000 C   0  0  0  0  0  0  0  0  0  0  0  0
  1  2  1  0
  2  3  2  0
  3  4  1  0
  4  5  2  0
  5  6  1  0
  6  7  2  0
  7  8  1  0
  8  9  1  0
  9 10  2  0
  9 11  1  0
 11 12  2  3
 12 13  1  0
 13 14  2  0
 14 15  1  0
 15 16  2  0
 16 17  1  0
 17 18  1  0
 18 19  1  0
 19 20  1  0
 20 21  1  0
 21 22  1  0
 22 23  1  0
 23 24  1  0
 24 25  1  0
 25 26  1  0
 17 27  1  0
 27 28  2  0
 27 29  1  0
 29 30  1  0
 30 31  2  0
 31 32  1  0
 32 33  2  0
 33 34  1  0
 34 35  1  0
 34 36  1  0
 34 37  1  0
 33 38  1  0
 38 39  2  0
 16 40  1  0
 40 41  2  0
  7  2  1  0
 41 13  1  0
 26 21  1  0
 39 30  1  0
M  END
>  <molecule_chembl_id>  (489) 
CHEMBL1643315

>  <canonical_smiles>  (489) 
Nc1ccccc1NC(=O)C=Cc1ccc(C(NCCC2CCOCC2)C(=O)Nc2ccc(C(F)(F)F)cc2)cc1

>  <pchembl_value_mean>  (489) 
6.1

>  <document_chembl_id>  (489) 
CHEMBL1641604

$$$$

     RDKit          2D

 37 40  0  0  0  0  0  0  0  0999 V2000
    3.0000    0.0000    0.0000 N   0  0  0  0  0  0  0  0  0  0  0  0
    1.5000    0.0000    0.0000 C   0  0  0  0  0  0  0  0  0  0  0  0
    0.7500   -1.2990    0.0000 C   0  0  0  0  0  0  0  0  0  0  0  0
   -0.7500   -1.2990    0.0000 C   0  0  0  0  0  0  0  0  0  0  0  0
   -1.5000    0.0000    0.0000 C   0  0  0  0  0  0  0  0  0  0  0  0
   -0.7500    1.2990    0.0000 C   0  0  0  0  0  0  0  0  0  0  0  0
    0.7500    1.2990    0.0000 C   0  0  0  0  0  0  0  0  0  0  0  0
    1.5000    2.5981    0.0000 N   0  0  0  0  0  0  0  0  0  0  0  0
    0.7500    3.8971    0.0000 C   0  0  0  0  0  0  0  0  0  0  0  0
   -0.7500    3.8971    0.0000 O   0  0  0  0  0  0  0  0  0  0  0  0
    1.5000    5.1962    0.0000 C   0  0  0  0  0  0  0  0  0  0  0  0
    3.0000    5.1962    0.0000 C   0  0  0  0  0  0  0  0  0  0  0  0
    3.7500    6.4952    0.0000 C   0  0  0  0  0  0  0  0  0  0  0  0
    3.0000    7.7942    0.0000 C   0  0  0  0  0  0  0  0  0  0  0  0
    3.7500    9.0933    0.0000 C   0  0  0  0  0  0  0  0  0  0  0  0
    5.2500    9.0933    0.0000 N   0  0  0  0  0  0  0  0  0  0  0  0
    6.0000   10.3923    0.0000 C   0  0  0  0  0  0  0  0  0  0  0  0
    5.2500   11.6913    0.0000 C   0  0  0  0  0  0  0  0  0  0  0  0
    3.7500   11.6913    0.0000 O   0  0  0  0  0  0  0  0  0  0  0  0
    6.0000   12.9904    0.0000 N   0  0  0  0  0  0  0  0  0  0  0  0
    5.2500   14.2894    0.0000 C   0  0  0  0  0  0  0  0  0  0  0  0
    6.0000   15.5885    0.0000 C   0  0  0  0  0  0  0  0  0  0  0  0
    5.2500   16.8875    0.0000 C   0  0  0  0  0  0  0  0  0  0  0  0
    6.0000   18.1865    0.0000 C   0  0  0  0  0  0  0  0  0  0  0  0
    7.5000   18.1865    0.0000 C   0  0  0  0  0  0  0  0  0  0  0  0
    8.2500   16.8875    0.0000 C   0  0  0  0  0  0  0  0  0  0  0  0
    7.5000   15.5885    0.0000 C   0  0  0  0  0  0  0  0  0  0  0  0
    6.0000    7.7942    0.0000 C   0  0  0  0  0  0  0  0  0  0  0  0
    5.2500    6.4952    0.0000 O   0  0  0  0  0  0  0  0  0  0  0  0
    7.5000    7.7942    0.0000 C   0  0  0  0  0  0  0  0  0  0  0  0
    8.2500    6.4952    0.0000 C   0  0  0  0  0  0  0  0  0  0  0  0
    9.7500    6.4952    0.0000 C   0  0  0  0  0  0  0  0  0  0  0  0
   10.5000    7.7942    0.0000 C   0  0  0  0  0  0  0  0  0  0  0  0
    9.7500    9.0933    0.0000 N   0  0  0  0  0  0  0  0  0  0  0  0
    8.2500    9.0933    0.0000 C   0  0  0  0  0  0  0  0  0  0  0  0
    1.5000    7.7942    0.0000 C   0  0  0  0  0  0  0  0  0  0  0  0
    0.7500    6.4952    0.0000 C   0  0  0  0  0  0  0  0  0  0  0  0
  1  2  1  0
  2  3  2  0
  3  4  1  0
  4  5  2  0
  5  6  1  0
  6  7  2  0
  7  8  1  0
  8  9  1  0
  9 10  2  0
  9 11  1  0
 11 12  2  0
 12 13  1  0
 13 14  2  0
 14 15  1  0
 15 16  1  0
 16 17  1  0
 17 18  1  0
 18 19  2  0
 18 20  1  0
 20 21  1  0
 21 22  1  0
 22 23  2  0
 23 24  1  0
 24 25  2  0
 25 26  1  0
 26 27  2  0
 16 28  1  0
 28 29  2  0
 28 30  1  0
 30 31  2  0
 31 32  1  0
 32 33  2  0
 33 34  1  0
 34 35  2  0
 14 36  1  0
 36 37  2  0
  7  2  1  0
 37 11  1  0
 27 22  1  0
 35 30  1  0
M  END
>  <molecule_chembl_id>  (490) 
CHEMBL4460434

>  <canonical_smiles>  (490) 
Nc1ccccc1NC(=O)c1ccc(CN(CC(=O)NCc2ccccc2)C(=O)c2cccnc2)cc1

>  <pchembl_value_mean>  (490) 
6.11

>  <document_chembl_id>  (490) 
CHEMBL4334526

$$$$

     RDKit          2D

 36 39  0  0  0  0  0  0  0  0999 V2000
   -7.5000   -5.1962    0.0000 O   0  0  0  0  0  0  0  0  0  0  0  0
   -6.0000   -5.1962    0.0000 C   0  0  0  0  0  0  0  0  0  0  0  0
   -5.2500   -6.4952    0.0000 N   0  0  0  0  0  0  0  0  0  0  0  0
   -6.0000   -7.7942    0.0000 O   0  0  0  0  0  0  0  0  0  0  0  0
   -5.2500   -3.8971    0.0000 C   0  0  0  0  0  0  0  0  0  0  0  0
   -3.7500   -3.8971    0.0000 C   0  0  0  0  0  0  0  0  0  0  0  0
   -3.0000   -2.5981    0.0000 N   0  0  0  0  0  0  0  0  0  0  0  0
   -3.7500   -1.2990    0.0000 C   0  0  0  0  0  0  0  0  0  0  0  0
   -3.0000    0.0000    0.0000 N   0  0  0  0  0  0  0  0  0  0  0  0
   -3.7500    1.2990    0.0000 C   0  0  0  0  0  0  0  0  0  0  0  0
   -2.3405    1.8121    0.0000 C   0  0  0  0  0  0  0  0  0  0  0  0
   -1.1914    0.8479    0.0000 C   0  0  0  0  0  0  0  0  0  0  0  0
    0.2181    1.3609    0.0000 C   0  0  0  0  0  0  0  0  0  0  0  0
    0.4786    2.8381    0.0000 C   0  0  0  0  0  0  0  0  0  0  0  0
   -0.6704    3.8023    0.0000 C   0  0  0  0  0  0  0  0  0  0  0  0
   -2.0800    3.2893    0.0000 C   0  0  0  0  0  0  0  0  0  0  0  0
   -4.8991    0.3349    0.0000 C   0  0  0  0  0  0  0  0  0  0  0  0
   -6.3086    0.8479    0.0000 C   0  0  0  0  0  0  0  0  0  0  0  0
   -6.5691    2.3251    0.0000 N   0  0  0  0  0  0  0  0  0  0  0  0
   -7.9786    2.8381    0.0000 S   0  0  0  0  0  0  0  0  0  0  0  0
   -8.4916    1.4286    0.0000 O   0  0  0  0  0  0  0  0  0  0  0  0
   -7.4656    4.2477    0.0000 O   0  0  0  0  0  0  0  0  0  0  0  0
   -9.3882    3.3512    0.0000 C   0  0  0  0  0  0  0  0  0  0  0  0
   -9.6486    4.8284    0.0000 C   0  0  0  0  0  0  0  0  0  0  0  0
  -11.0582    5.3414    0.0000 C   0  0  0  0  0  0  0  0  0  0  0  0
  -12.2072    4.3772    0.0000 C   0  0  0  0  0  0  0  0  0  0  0  0
  -13.6168    4.8902    0.0000 C   0  0  0  0  0  0  0  0  0  0  0  0
  -15.0263    5.4033    0.0000 F   0  0  0  0  0  0  0  0  0  0  0  0
  -13.1037    6.2998    0.0000 F   0  0  0  0  0  0  0  0  0  0  0  0
  -14.1298    3.4807    0.0000 F   0  0  0  0  0  0  0  0  0  0  0  0
  -11.9468    2.9000    0.0000 C   0  0  0  0  0  0  0  0  0  0  0  0
  -10.5372    2.3870    0.0000 C   0  0  0  0  0  0  0  0  0  0  0  0
   -5.4200    3.2893    0.0000 C   0  0  0  0  0  0  0  0  0  0  0  0
   -4.0105    2.7762    0.0000 C   0  0  0  0  0  0  0  0  0  0  0  0
   -5.2500   -1.2990    0.0000 N   0  0  0  0  0  0  0  0  0  0  0  0
   -6.0000   -2.5981    0.0000 C   0  0  0  0  0  0  0  0  0  0  0  0
  1  2  2  0
  2  3  1  0
  3  4  1  0
  2  5  1  0
  5  6  2  0
  6  7  1  0
  7  8  2  0
  8  9  1  0
  9 10  1  0
 10 11  1  0
 11 12  2  0
 12 13  1  0
 13 14  2  0
 14 15  1  0
 15 16  2  0
 10 17  1  0
 17 18  1  0
 18 19  1  0
 19 20  1  0
 20 21  2  0
 20 22  2  0
 20 23  1  0
 23 24  2  0
 24 25  1  0
 25 26  2  0
 26 27  1  0
 27 28  1  0
 27 29  1  0
 27 30  1  0
 26 31  1  0
 31 32  2  0
 19 33  1  0
 33 34  1  0
  8 35  1  0
 35 36  2  0
 36  5  1  0
 34 10  1  0
 16 11  1  0
 32 23  1  0
M  END
>  <molecule_chembl_id>  (491) 
CHEMBL3910638

>  <canonical_smiles>  (491) 
O=C(NO)c1cnc(NC2(c3ccccc3)CCN(S(=O)(=O)c3ccc(C(F)(F)F)cc3)CC2)nc1

>  <pchembl_value_mean>  (491) 
6.11

>  <document_chembl_id>  (491) 
CHEMBL3886590

$$$$

     RDKit          2D

 40 42  0  0  0  0  0  0  0  0999 V2000
    6.7500   -1.2990    0.0000 N   0  0  0  0  0  2  0  0  0  0  0  0
    5.2500   -1.2990    0.0000 N   0  0  0  0  0  4  0  0  0  0  0  0
    3.7500   -1.2990    0.0000 N   0  0  0  0  0  0  0  0  0  0  0  0
    3.0000    0.0000    0.0000 C   0  0  0  0  0  0  0  0  0  0  0  0
    1.5000    0.0000    0.0000 C   0  0  0  0  0  0  0  0  0  0  0  0
    0.7500   -1.2990    0.0000 C   0  0  0  0  0  0  0  0  0  0  0  0
   -0.7500   -1.2990    0.0000 C   0  0  0  0  0  0  0  0  0  0  0  0
   -1.5000   -2.5981    0.0000 N   0  0  0  0  0  0  0  0  0  0  0  0
   -3.0000   -2.5981    0.0000 N   0  0  0  0  0  4  0  0  0  0  0  0
   -4.5000   -2.5981    0.0000 N   0  0  0  0  0  2  0  0  0  0  0  0
   -1.5000    0.0000    0.0000 C   0  0  0  0  0  0  0  0  0  0  0  0
   -0.7500    1.2990    0.0000 C   0  0  0  0  0  0  0  0  0  0  0  0
   -1.5000    2.5981    0.0000 C   0  0  0  0  0  0  0  0  0  0  0  0
   -3.0000    2.5981    0.0000 O   0  0  0  0  0  0  0  0  0  0  0  0
   -0.7500    3.8971    0.0000 N   0  0  0  0  0  0  0  0  0  0  0  0
   -1.5000    5.1962    0.0000 C   0  0  0  0  0  0  0  0  0  0  0  0
   -0.7500    6.4952    0.0000 C   0  0  0  0  0  0  0  0  0  0  0  0
   -1.5000    7.7942    0.0000 C   0  0  0  0  0  0  0  0  0  0  0  0
   -3.0000    7.7942    0.0000 C   0  0  0  0  0  0  0  0  0  0  0  0
   -3.7500    9.0933    0.0000 C   0  0  0  0  0  0  0  0  0  0  0  0
   -5.2418    9.2501    0.0000 C   0  0  0  0  0  0  0  0  0  0  0  0
   -5.5537   10.7173    0.0000 C   0  0  0  0  0  0  0  0  0  0  0  0
   -6.9240   11.3274    0.0000 C   0  0  0  0  0  0  0  0  0  0  0  0
   -8.1375   10.4457    0.0000 O   0  0  0  0  0  0  0  0  0  0  0  0
   -7.0808   12.8192    0.0000 N   0  0  0  0  0  0  0  0  0  0  0  0
   -8.4511   13.4293    0.0000 C   0  0  0  0  0  0  0  0  0  0  0  0
   -8.6079   14.9211    0.0000 C   0  0  0  0  0  0  0  0  0  0  0  0
   -9.9782   15.5312    0.0000 C   0  0  0  0  0  0  0  0  0  0  0  0
  -10.1350   17.0229    0.0000 C   0  0  0  0  0  0  0  0  0  0  0  0
  -11.5053   17.6330    0.0000 C   0  0  0  0  0  0  0  0  0  0  0  0
  -11.6621   19.1248    0.0000 C   0  0  0  0  0  0  0  0  0  0  0  0
  -13.0324   19.7349    0.0000 C   0  0  0  0  0  0  0  0  0  0  0  0
  -14.2459   18.8533    0.0000 O   0  0  0  0  0  0  0  0  0  0  0  0
  -13.1892   21.2267    0.0000 N   0  0  0  0  0  0  0  0  0  0  0  0
  -14.5595   21.8368    0.0000 O   0  0  0  0  0  0  0  0  0  0  0  0
   -4.2546   11.4673    0.0000 N   0  0  0  0  0  0  0  0  0  0  0  0
   -3.1399   10.4636    0.0000 O   0  0  0  0  0  0  0  0  0  0  0  0
   -3.7500    6.4952    0.0000 C   0  0  0  0  0  0  0  0  0  0  0  0
   -3.0000    5.1962    0.0000 C   0  0  0  0  0  0  0  0  0  0  0  0
    0.7500    1.2990    0.0000 C   0  0  0  0  0  0  0  0  0  0  0  0
  1  2  2  0
  2  3  2  0
  3  4  1  0
  4  5  1  0
  5  6  2  0
  6  7  1  0
  7  8  1  0
  8  9  2  0
  9 10  2  0
  7 11  2  0
 11 12  1  0
 12 13  1  0
 13 14  2  0
 13 15  1  0
 15 16  1  0
 16 17  2  0
 17 18  1  0
 18 19  2  0
 19 20  1  0
 20 21  2  0
 21 22  1  0
 22 23  1  0
 23 24  2  0
 23 25  1  0
 25 26  1  0
 26 27  1  0
 27 28  1  0
 28 29  1  0
 29 30  1  0
 30 31  1  0
 31 32  1  0
 32 33  2  0
 32 34  1  0
 34 35  1  0
 22 36  2  0
 36 37  1  0
 19 38  1  0
 38 39  2  0
 12 40  2  0
 40  5  1  0
 39 16  1  0
 37 20  1  0
M  CHG  4   1  -1   2   1   9   1  10  -1
M  END
>  <molecule_chembl_id>  (492) 
CHEMBL1914702

>  <canonical_smiles>  (492) 
[N-]=[N+]=NCc1cc(N=[N+]=[N-])cc(C(=O)Nc2ccc(-c3cc(C(=O)NCCCCCCC(=O)NO)no3)cc2)c1

>  <pchembl_value_mean>  (492) 
6.11

>  <document_chembl_id>  (492) 
CHEMBL1914352

$$$$

     RDKit          2D

 34 36  0  0  0  0  0  0  0  0999 V2000
    5.2500   -3.8971    0.0000 C   0  0  0  0  0  0  0  0  0  0  0  0
    3.7500   -3.8971    0.0000 C   0  0  0  0  0  0  0  0  0  0  0  0
    3.0000   -2.5981    0.0000 O   0  0  0  0  0  0  0  0  0  0  0  0
    1.5000   -2.5981    0.0000 C   0  0  0  0  0  0  0  0  0  0  0  0
    0.7500   -3.8971    0.0000 C   0  0  0  0  0  0  0  0  0  0  0  0
   -0.7500   -3.8971    0.0000 C   0  0  0  0  0  0  0  0  0  0  0  0
   -1.5000   -5.1962    0.0000 N   0  0  0  0  0  0  0  0  0  0  0  0
   -3.0000   -5.1962    0.0000 C   0  0  0  0  0  0  0  0  0  0  0  0
   -3.7500   -3.8971    0.0000 O   0  0  0  0  0  0  0  0  0  0  0  0
   -3.7500   -6.4952    0.0000 C   0  0  0  0  0  0  0  0  0  0  0  0
   -5.2500   -6.4952    0.0000 C   0  0  0  0  0  0  0  0  0  0  0  0
   -6.0000   -7.7942    0.0000 C   0  0  0  0  0  0  0  0  0  0  0  0
   -7.5000   -7.7942    0.0000 C   0  0  0  0  0  0  0  0  0  0  0  0
   -8.2500   -9.0933    0.0000 C   0  0  0  0  0  0  0  0  0  0  0  0
   -9.7500   -9.0933    0.0000 C   0  0  0  0  0  0  0  0  0  0  0  0
  -10.5000   -7.7942    0.0000 O   0  0  0  0  0  0  0  0  0  0  0  0
  -10.5000  -10.3923    0.0000 N   0  0  0  0  0  0  0  0  0  0  0  0
  -12.0000  -10.3923    0.0000 C   0  0  0  0  0  0  0  0  0  0  0  0
  -12.7500   -9.0933    0.0000 C   0  0  0  0  0  0  0  0  0  0  0  0
  -14.2500   -9.0933    0.0000 C   0  0  0  0  0  0  0  0  0  0  0  0
  -15.0000  -10.3923    0.0000 C   0  0  0  0  0  0  0  0  0  0  0  0
  -14.2500  -11.6913    0.0000 C   0  0  0  0  0  0  0  0  0  0  0  0
  -12.7500  -11.6913    0.0000 C   0  0  0  0  0  0  0  0  0  0  0  0
  -12.0000  -12.9904    0.0000 N   0  0  0  0  0  0  0  0  0  0  0  0
   -1.5000   -2.5981    0.0000 C   0  0  0  0  0  0  0  0  0  0  0  0
   -0.7500   -1.2990    0.0000 C   0  0  0  0  0  0  0  0  0  0  0  0
    0.7500   -1.2990    0.0000 C   0  0  0  0  0  0  0  0  0  0  0  0
    1.5000    0.0000    0.0000 O   0  0  0  0  0  0  0  0  0  0  0  0
    0.7500    1.2990    0.0000 C   0  0  0  0  0  0  0  0  0  0  0  0
   -0.7500    1.2990    0.0000 C   0  0  0  0  0  0  0  0  0  0  0  0
   -1.5000    2.5981    0.0000 N   0  0  0  0  0  4  0  0  0  0  0  0
   -3.0000    2.5981    0.0000 O   0  0  0  0  0  0  0  0  0  0  0  0
   -0.7500    3.8971    0.0000 O   0  0  0  0  0  1  0  0  0  0  0  0
   -1.5000    0.0000    0.0000 C   0  0  0  0  0  0  0  0  0  0  0  0
  1  2  1  0
  2  3  1  0
  3  4  1  0
  4  5  2  0
  5  6  1  0
  6  7  1  0
  7  8  1  0
  8  9  2  0
  8 10  1  0
 10 11  1  0
 11 12  1  0
 12 13  1  0
 13 14  1  0
 14 15  1  0
 15 16  2  0
 15 17  1  0
 17 18  1  0
 18 19  2  0
 19 20  1  0
 20 21  2  0
 21 22  1  0
 22 23  2  0
 23 24  1  0
  6 25  2  0
 25 26  1  0
 26 27  2  0
 27 28  1  0
 28 29  1  0
 29 30  1  0
 30 31  1  0
 31 32  2  0
 31 33  1  0
 30 34  2  0
 27  4  1  0
 23 18  1  0
 34 26  1  0
M  CHG  2  31   1  33  -1
M  END
>  <molecule_chembl_id>  (493) 
CHEMBL4103874

>  <canonical_smiles>  (493) 
CCOc1cc(NC(=O)CCCCCC(=O)Nc2ccccc2N)cc2c1OCC([N+](=O)[O-])=C2

>  <pchembl_value_mean>  (493) 
6.12

>  <document_chembl_id>  (493) 
CHEMBL4052685

$$$$

     RDKit          2D

 30 33  0  0  0  0  0  0  0  0999 V2000
    7.7282  -11.6340    0.0000 C   0  0  0  0  0  0  0  0  0  0  0  0
    6.3579  -11.0239    0.0000 C   0  0  0  0  0  0  0  0  0  0  0  0
    6.2011   -9.5322    0.0000 C   0  0  0  0  0  0  0  0  0  0  0  0
    4.8308   -8.9221    0.0000 C   0  0  0  0  0  0  0  0  0  0  0  0
    4.6740   -7.4303    0.0000 C   0  0  0  0  0  0  0  0  0  0  0  0
    5.8875   -6.5486    0.0000 N   0  0  0  0  0  0  0  0  0  0  0  0
    7.2578   -7.1587    0.0000 C   0  0  0  0  0  0  0  0  0  0  0  0
    7.4146   -8.6505    0.0000 O   0  0  0  0  0  0  0  0  0  0  0  0
    8.4713   -6.2770    0.0000 C   0  0  0  0  0  0  0  0  0  0  0  0
    9.9529   -6.5117    0.0000 C   0  0  0  0  0  0  0  0  0  0  0  0
   10.1875   -5.0301    0.0000 N   0  0  0  0  0  0  0  0  0  0  0  0
   11.4010   -4.1485    0.0000 C   0  0  0  0  0  0  0  0  0  0  0  0
    8.7060   -4.7955    0.0000 C   0  0  0  0  0  0  0  0  0  0  0  0
    3.3037   -6.8202    0.0000 C   0  0  0  0  0  0  0  0  0  0  0  0
    2.0046   -7.5702    0.0000 N   0  0  0  0  0  0  0  0  0  0  0  0
    0.8899   -6.5665    0.0000 C   0  0  0  0  0  0  0  0  0  0  0  0
    1.5000   -5.1962    0.0000 C   0  0  0  0  0  0  0  0  0  0  0  0
    0.7500   -3.8971    0.0000 C   0  0  0  0  0  0  0  0  0  0  0  0
    1.5000   -2.5981    0.0000 C   0  0  0  0  0  0  0  0  0  0  0  0
    0.7500   -1.2990    0.0000 C   0  0  0  0  0  0  0  0  0  0  0  0
    1.5000    0.0000    0.0000 C   0  0  0  0  0  0  0  0  0  0  0  0
    0.7500    1.2990    0.0000 C   0  0  0  0  0  0  0  0  0  0  0  0
   -0.7500    1.2990    0.0000 C   0  0  0  0  0  0  0  0  0  0  0  0
   -1.5000    0.0000    0.0000 C   0  0  0  0  0  0  0  0  0  0  0  0
   -0.7500   -1.2990    0.0000 C   0  0  0  0  0  0  0  0  0  0  0  0
   -1.5000   -2.5981    0.0000 N   0  0  0  0  0  0  0  0  0  0  0  0
   -0.7500   -3.8971    0.0000 C   0  0  0  0  0  0  0  0  0  0  0  0
   -1.5000   -5.1962    0.0000 O   0  0  0  0  0  0  0  0  0  0  0  0
   -3.0000   -5.1962    0.0000 C   0  0  0  0  0  0  0  0  0  0  0  0
    2.9918   -5.3529    0.0000 N   0  0  0  0  0  0  0  0  0  0  0  0
  1  2  1  0
  2  3  1  0
  3  4  1  0
  4  5  1  0
  5  6  1  0
  6  7  1  0
  7  8  2  0
  7  9  1  0
  9 10  1  0
 10 11  1  0
 11 12  1  0
 11 13  1  0
  5 14  1  0
 14 15  2  0
 15 16  1  0
 16 17  2  0
 17 18  1  0
 18 19  2  0
 19 20  1  0
 20 21  2  0
 21 22  1  0
 22 23  2  0
 23 24  1  0
 24 25  2  0
 25 26  1  0
 26 27  2  0
 27 28  1  0
 28 29  1  0
 17 30  1  0
 13  9  1  0
 30 14  1  0
 27 18  1  0
 25 20  1  0
M  END
>  <molecule_chembl_id>  (494) 
CHEMBL4851511

>  <canonical_smiles>  (494) 
CCCCC(NC(=O)C1CN(C)C1)c1ncc(-c2cc3ccccc3nc2OC)[nH]1

>  <pchembl_value_mean>  (494) 
6.12

>  <document_chembl_id>  (494) 
CHEMBL4814059

$$$$

     RDKit          2D

 49 53  0  0  0  0  0  0  0  0999 V2000
   19.5000  -15.5885    0.0000 N   0  0  0  0  0  0  0  0  0  0  0  0
   18.7500  -16.8875    0.0000 C   0  0  0  0  0  0  0  0  0  0  0  0
   19.5000  -18.1865    0.0000 C   0  0  0  0  0  0  0  0  0  0  0  0
   18.7500  -19.4856    0.0000 C   0  0  0  0  0  0  0  0  0  0  0  0
   17.2500  -19.4856    0.0000 C   0  0  0  0  0  0  0  0  0  0  0  0
   16.5000  -18.1865    0.0000 C   0  0  0  0  0  0  0  0  0  0  0  0
   17.2500  -16.8875    0.0000 C   0  0  0  0  0  0  0  0  0  0  0  0
   16.5000  -15.5885    0.0000 N   0  0  0  0  0  0  0  0  0  0  0  0
   17.2500  -14.2894    0.0000 C   0  0  0  0  0  0  0  0  0  0  0  0
   18.7500  -14.2894    0.0000 O   0  0  0  0  0  0  0  0  0  0  0  0
   16.5000  -12.9904    0.0000 C   0  0  0  0  0  0  0  0  0  0  0  0
   17.2500  -11.6913    0.0000 C   0  0  0  0  0  0  0  0  0  0  0  0
   16.5000  -10.3923    0.0000 C   0  0  0  0  0  0  0  0  0  0  0  0
   15.0000  -10.3923    0.0000 C   0  0  0  0  0  0  0  0  0  0  0  0
   14.2500   -9.0933    0.0000 N   0  0  0  0  0  0  0  0  0  0  0  0
   12.7500   -9.0933    0.0000 C   0  0  0  0  0  0  0  0  0  0  0  0
   12.0000  -10.3923    0.0000 O   0  0  0  0  0  0  0  0  0  0  0  0
   12.0000   -7.7942    0.0000 C   0  0  0  0  0  0  0  0  0  0  0  0
   10.5000   -7.7942    0.0000 C   0  0  0  0  0  0  0  0  0  0  0  0
    9.7500   -6.4952    0.0000 C   0  0  0  0  0  0  0  0  0  0  0  0
    8.2500   -6.4952    0.0000 C   0  0  0  0  0  0  0  0  0  0  0  0
    7.5000   -5.1962    0.0000 C   0  0  0  0  0  0  0  0  0  0  0  0
    6.0000   -5.1962    0.0000 C   0  0  0  0  0  0  0  0  0  0  0  0
    5.2500   -3.8971    0.0000 N   0  0  0  0  0  0  0  0  0  0  0  0
    3.7500   -3.8971    0.0000 C   0  0  0  0  0  0  0  0  0  0  0  0
    3.0000   -5.1962    0.0000 O   0  0  0  0  0  0  0  0  0  0  0  0
    3.0000   -2.5981    0.0000 C   0  0  0  0  0  0  0  0  0  0  0  0
    1.5000   -2.5981    0.0000 N   0  0  0  0  0  0  0  0  0  0  0  0
    0.7500   -1.2990    0.0000 C   0  0  0  0  0  0  0  0  0  0  0  0
    1.5000    0.0000    0.0000 C   0  0  0  0  0  0  0  0  0  0  0  0
    0.7500    1.2990    0.0000 C   0  0  0  0  0  0  0  0  0  0  0  0
   -0.7500    1.2990    0.0000 C   0  0  0  0  0  0  0  0  0  0  0  0
   -1.5000    0.0000    0.0000 C   0  0  0  0  0  0  0  0  0  0  0  0
   -0.7500   -1.2990    0.0000 C   0  0  0  0  0  0  0  0  0  0  0  0
   -1.7537   -2.4138    0.0000 C   0  0  0  0  0  0  0  0  0  0  0  0
   -1.4418   -3.8810    0.0000 O   0  0  0  0  0  0  0  0  0  0  0  0
   -3.1240   -1.8037    0.0000 N   0  0  0  0  0  0  0  0  0  0  0  0
   -4.4231   -2.5537    0.0000 C   0  0  0  0  0  0  0  0  0  0  0  0
   -5.7221   -1.8037    0.0000 C   0  0  0  0  0  0  0  0  0  0  0  0
   -7.0211   -2.5537    0.0000 C   0  0  0  0  0  0  0  0  0  0  0  0
   -7.0211   -4.0537    0.0000 C   0  0  0  0  0  0  0  0  0  0  0  0
   -8.3202   -4.8037    0.0000 O   0  0  0  0  0  0  0  0  0  0  0  0
   -5.7221   -4.8037    0.0000 N   0  0  0  0  0  0  0  0  0  0  0  0
   -4.4231   -4.0537    0.0000 C   0  0  0  0  0  0  0  0  0  0  0  0
   -3.1240   -4.8037    0.0000 O   0  0  0  0  0  0  0  0  0  0  0  0
   -2.9672   -0.3119    0.0000 C   0  0  0  0  0  0  0  0  0  0  0  0
   -4.0819    0.6918    0.0000 O   0  0  0  0  0  0  0  0  0  0  0  0
   14.2500  -11.6913    0.0000 C   0  0  0  0  0  0  0  0  0  0  0  0
   15.0000  -12.9904    0.0000 C   0  0  0  0  0  0  0  0  0  0  0  0
  1  2  1  0
  2  3  2  0
  3  4  1  0
  4  5  2  0
  5  6  1  0
  6  7  2  0
  7  8  1  0
  8  9  1  0
  9 10  2  0
  9 11  1  0
 11 12  2  0
 12 13  1  0
 13 14  2  0
 14 15  1  0
 15 16  1  0
 16 17  2  0
 16 18  1  0
 18 19  1  0
 19 20  1  0
 20 21  1  0
 21 22  1  0
 22 23  1  0
 23 24  1  0
 24 25  1  0
 25 26  2  0
 25 27  1  0
 27 28  1  0
 28 29  1  0
 29 30  2  0
 30 31  1  0
 31 32  2  0
 32 33  1  0
 33 34  2  0
 34 35  1  0
 35 36  2  0
 35 37  1  0
 37 38  1  0
 38 39  1  0
 39 40  1  0
 40 41  1  0
 41 42  2  0
 41 43  1  0
 43 44  1  0
 44 45  2  0
 37 46  1  0
 46 47  2  0
 14 48  1  0
 48 49  2  0
  7  2  1  0
 49 11  1  0
 34 29  1  0
 44 38  1  0
 46 33  1  0
M  END
>  <molecule_chembl_id>  (495) 
CHEMBL4740328

>  <canonical_smiles>  (495) 
Nc1ccccc1NC(=O)c1ccc(NC(=O)CCCCCCNC(=O)CNc2cccc3c2C(=O)N(C2CCC(=O)NC2=O)C3=O)cc1

>  <pchembl_value_mean>  (495) 
6.12

>  <document_chembl_id>  (495) 
CHEMBL4706593

$$$$

     RDKit          2D

 24 27  0  0  0  0  0  0  0  0999 V2000
    5.3142   -9.5216    0.0000 O   0  0  0  0  0  0  0  0  0  0  0  0
    3.8876   -9.0580    0.0000 C   0  0  0  0  0  0  0  0  0  0  0  0
    2.7729  -10.0617    0.0000 N   0  0  0  0  0  0  0  0  0  0  0  0
    3.0847  -11.5290    0.0000 O   0  0  0  0  0  0  0  0  0  0  0  0
    3.5757   -7.5908    0.0000 C   0  0  0  0  0  0  0  0  0  0  0  0
    2.1491   -7.1273    0.0000 C   0  0  0  0  0  0  0  0  0  0  0  0
    1.8373   -5.6601    0.0000 N   0  0  0  0  0  0  0  0  0  0  0  0
    2.9520   -4.6564    0.0000 C   0  0  0  0  0  0  0  0  0  0  0  0
    2.6401   -3.1891    0.0000 N   0  0  0  0  0  0  0  0  0  0  0  0
    1.2135   -2.7256    0.0000 C   0  0  0  0  0  0  0  0  0  0  0  0
    0.7500   -1.2990    0.0000 C   0  0  0  0  0  0  0  0  0  0  0  0
    1.5000    0.0000    0.0000 C   0  0  0  0  0  0  0  0  0  0  0  0
    0.7500    1.2990    0.0000 C   0  0  0  0  0  0  0  0  0  0  0  0
   -0.7500    1.2990    0.0000 C   0  0  0  0  0  0  0  0  0  0  0  0
   -1.5000    0.0000    0.0000 C   0  0  0  0  0  0  0  0  0  0  0  0
   -0.7500   -1.2990    0.0000 C   0  0  0  0  0  0  0  0  0  0  0  0
   -1.2135   -2.7256    0.0000 C   0  0  0  0  0  0  0  0  0  0  0  0
   -2.5838   -3.3357    0.0000 C   0  0  0  0  0  0  0  0  0  0  0  0
   -2.7406   -4.8275    0.0000 C   0  0  0  0  0  0  0  0  0  0  0  0
   -1.5271   -5.7092    0.0000 C   0  0  0  0  0  0  0  0  0  0  0  0
   -0.1568   -5.0991    0.0000 C   0  0  0  0  0  0  0  0  0  0  0  0
   -0.0000   -3.6073    0.0000 C   0  0  0  0  0  0  0  0  0  0  0  0
    4.3786   -5.1199    0.0000 N   0  0  0  0  0  0  0  0  0  0  0  0
    4.6904   -6.5871    0.0000 C   0  0  0  0  0  0  0  0  0  0  0  0
  1  2  2  0
  2  3  1  0
  3  4  1  0
  2  5  1  0
  5  6  2  0
  6  7  1  0
  7  8  2  0
  8  9  1  0
  9 10  1  0
 10 11  1  0
 11 12  2  0
 12 13  1  0
 13 14  2  0
 14 15  1  0
 15 16  2  0
 16 17  1  0
 17 18  2  0
 18 19  1  0
 19 20  2  0
 20 21  1  0
 21 22  2  0
  8 23  1  0
 23 24  2  0
 24  5  1  0
 22 10  1  0
 16 11  1  0
 22 17  1  0
M  END
>  <molecule_chembl_id>  (496) 
CHEMBL3655988

>  <canonical_smiles>  (496) 
O=C(NO)c1cnc(NC2c3ccccc3-c3ccccc32)nc1

>  <pchembl_value_mean>  (496) 
6.12

>  <document_chembl_id>  (496) 
CHEMBL3639071

$$$$

     RDKit          2D

 40 44  0  0  0  0  0  0  0  0999 V2000
   -8.3450  -21.8109    0.0000 C   0  0  0  0  0  0  0  0  0  0  0  0
   -7.1315  -20.9293    0.0000 O   0  0  0  0  0  0  0  0  0  0  0  0
   -7.2883  -19.4375    0.0000 C   0  0  0  0  0  0  0  0  0  0  0  0
   -8.6586  -18.8274    0.0000 C   0  0  0  0  0  0  0  0  0  0  0  0
   -8.8154  -17.3356    0.0000 C   0  0  0  0  0  0  0  0  0  0  0  0
   -7.6019  -16.4539    0.0000 C   0  0  0  0  0  0  0  0  0  0  0  0
   -7.7587  -14.9621    0.0000 O   0  0  0  0  0  0  0  0  0  0  0  0
   -6.2315  -17.0640    0.0000 C   0  0  0  0  0  0  0  0  0  0  0  0
   -5.0180  -16.1823    0.0000 C   0  0  0  0  0  0  0  0  0  0  0  0
   -3.6477  -16.7924    0.0000 O   0  0  0  0  0  0  0  0  0  0  0  0
   -5.1748  -14.6905    0.0000 N   0  0  0  0  0  0  0  0  0  0  0  0
   -3.9613  -13.8089    0.0000 C   0  0  0  0  0  0  0  0  0  0  0  0
   -4.1181  -12.3171    0.0000 C   0  0  0  0  0  0  0  0  0  0  0  0
   -2.9046  -11.4354    0.0000 C   0  0  0  0  0  0  0  0  0  0  0  0
   -3.0613   -9.9436    0.0000 C   0  0  0  0  0  0  0  0  0  0  0  0
   -1.8478   -9.0619    0.0000 C   0  0  0  0  0  0  0  0  0  0  0  0
   -0.4775   -9.6721    0.0000 N   0  0  0  0  0  0  0  0  0  0  0  0
   -0.3207  -11.1638    0.0000 C   0  0  0  0  0  0  0  0  0  0  0  0
   -1.5342  -12.0455    0.0000 O   0  0  0  0  0  0  0  0  0  0  0  0
    1.0496  -11.7739    0.0000 C   0  0  0  0  0  0  0  0  0  0  0  0
    2.3486  -11.0239    0.0000 C   0  0  0  0  0  0  0  0  0  0  0  0
    3.4634  -12.0276    0.0000 N   0  0  0  0  0  0  0  0  0  0  0  0
    2.8533  -13.3980    0.0000 C   0  0  0  0  0  0  0  0  0  0  0  0
    1.3615  -13.2412    0.0000 S   0  0  0  0  0  0  0  0  0  0  0  0
   -2.0046   -7.5702    0.0000 C   0  0  0  0  0  0  0  0  0  0  0  0
   -3.3037   -6.8202    0.0000 N   0  0  0  0  0  0  0  0  0  0  0  0
   -2.9918   -5.3529    0.0000 C   0  0  0  0  0  0  0  0  0  0  0  0
   -1.5000   -5.1962    0.0000 C   0  0  0  0  0  0  0  0  0  0  0  0
   -0.7500   -3.8971    0.0000 C   0  0  0  0  0  0  0  0  0  0  0  0
    0.7500   -3.8971    0.0000 C   0  0  0  0  0  0  0  0  0  0  0  0
    1.5000   -2.5981    0.0000 C   0  0  0  0  0  0  0  0  0  0  0  0
    0.7500   -1.2990    0.0000 C   0  0  0  0  0  0  0  0  0  0  0  0
    1.5000    0.0000    0.0000 C   0  0  0  0  0  0  0  0  0  0  0  0
    0.7500    1.2990    0.0000 C   0  0  0  0  0  0  0  0  0  0  0  0
   -0.7500    1.2990    0.0000 C   0  0  0  0  0  0  0  0  0  0  0  0
   -1.5000    0.0000    0.0000 C   0  0  0  0  0  0  0  0  0  0  0  0
   -0.7500   -1.2990    0.0000 C   0  0  0  0  0  0  0  0  0  0  0  0
   -1.5000   -2.5981    0.0000 C   0  0  0  0  0  0  0  0  0  0  0  0
   -0.8899   -6.5665    0.0000 N   0  0  0  0  0  0  0  0  0  0  0  0
   -6.0748  -18.5558    0.0000 C   0  0  0  0  0  0  0  0  0  0  0  0
  1  2  1  0
  2  3  1  0
  3  4  2  0
  4  5  1  0
  5  6  2  0
  6  7  1  0
  6  8  1  0
  8  9  1  0
  9 10  2  0
  9 11  1  0
 11 12  1  0
 12 13  1  0
 13 14  1  0
 14 15  1  0
 15 16  1  0
 16 17  1  0
 17 18  1  0
 18 19  2  0
 18 20  1  0
 20 21  2  0
 21 22  1  0
 22 23  2  0
 23 24  1  0
 16 25  1  0
 25 26  2  0
 26 27  1  0
 27 28  2  0
 28 29  1  0
 29 30  2  0
 30 31  1  0
 31 32  2  0
 32 33  1  0
 33 34  2  0
 34 35  1  0
 35 36  2  0
 36 37  1  0
 37 38  2  0
 28 39  1  0
  8 40  2  0
 40  3  1  0
 24 20  1  0
 39 25  1  0
 38 29  1  0
 37 32  1  0
M  END
>  <molecule_chembl_id>  (497) 
CHEMBL4786504

>  <canonical_smiles>  (497) 
COc1ccc(O)c(C(=O)NCCCCC(NC(=O)c2cncs2)c2ncc(-c3ccc4ccccc4c3)[nH]2)c1

>  <pchembl_value_mean>  (497) 
6.12

>  <document_chembl_id>  (497) 
CHEMBL4725494

$$$$

     RDKit          2D

 31 34  0  0  0  0  0  0  0  0999 V2000
    6.0000   -0.0000    0.0000 C   0  0  0  0  0  0  0  0  0  0  0  0
    5.2500   -1.2990    0.0000 C   0  0  0  0  0  0  0  0  0  0  0  0
    3.7500   -1.2990    0.0000 O   0  0  0  0  0  0  0  0  0  0  0  0
    3.0000   -2.5981    0.0000 C   0  0  0  0  0  0  0  0  0  0  0  0
    3.7500   -3.8971    0.0000 C   0  0  0  0  0  0  0  0  0  0  0  0
    3.0000   -5.1962    0.0000 C   0  0  0  0  0  0  0  0  0  0  0  0
    1.5000   -5.1962    0.0000 C   0  0  0  0  0  0  0  0  0  0  0  0
    0.7500   -6.4952    0.0000 C   0  0  0  0  0  0  0  0  0  0  0  0
   -0.7500   -6.4952    0.0000 C   0  0  0  0  0  0  0  0  0  0  0  0
   -1.8107   -5.4345    0.0000 C   0  0  0  0  0  0  0  0  0  0  0  0
   -2.8713   -6.4952    0.0000 C   0  0  0  0  0  0  0  0  0  0  0  0
   -4.3713   -6.4952    0.0000 C   0  0  0  0  0  0  0  0  0  0  0  0
   -5.1213   -7.7942    0.0000 O   0  0  0  0  0  0  0  0  0  0  0  0
   -5.1213   -5.1962    0.0000 N   0  0  0  0  0  0  0  0  0  0  0  0
   -6.6213   -5.1962    0.0000 O   0  0  0  0  0  0  0  0  0  0  0  0
   -1.8107   -7.5559    0.0000 C   0  0  0  0  0  0  0  0  0  0  0  0
    0.7500   -3.8971    0.0000 C   0  0  0  0  0  0  0  0  0  0  0  0
    1.5000   -2.5981    0.0000 C   0  0  0  0  0  0  0  0  0  0  0  0
    0.7500   -1.2990    0.0000 C   0  0  0  0  0  0  0  0  0  0  0  0
    1.5000    0.0000    0.0000 N   0  0  0  0  0  0  0  0  0  0  0  0
    0.7500    1.2990    0.0000 C   0  0  0  0  0  0  0  0  0  0  0  0
    1.2135    2.7256    0.0000 C   0  0  0  0  0  0  0  0  0  0  0  0
    2.6401    3.1891    0.0000 C   0  0  0  0  0  0  0  0  0  0  0  0
    2.9520    4.6564    0.0000 C   0  0  0  0  0  0  0  0  0  0  0  0
    0.0000    3.6073    0.0000 N   0  0  0  0  0  0  0  0  0  0  0  0
   -1.2135    2.7256    0.0000 N   0  0  0  0  0  0  0  0  0  0  0  0
   -2.6401    3.1891    0.0000 C   0  0  0  0  0  0  0  0  0  0  0  0
   -0.7500    1.2990    0.0000 C   0  0  0  0  0  0  0  0  0  0  0  0
   -1.5000    0.0000    0.0000 C   0  0  0  0  0  0  0  0  0  0  0  0
   -3.0000    0.0000    0.0000 O   0  0  0  0  0  0  0  0  0  0  0  0
   -0.7500   -1.2990    0.0000 N   0  0  0  0  0  0  0  0  0  0  0  0
  1  2  1  0
  2  3  1  0
  3  4  1  0
  4  5  2  0
  5  6  1  0
  6  7  2  0
  7  8  1  0
  8  9  1  0
  9 10  1  0
 10 11  1  0
 11 12  1  0
 12 13  2  0
 12 14  1  0
 14 15  1  0
 11 16  1  0
  7 17  1  0
 17 18  2  0
 18 19  1  0
 19 20  2  0
 20 21  1  0
 21 22  1  0
 22 23  1  0
 23 24  1  0
 22 25  2  0
 25 26  1  0
 26 27  1  0
 26 28  1  0
 28 29  1  0
 29 30  2  0
 29 31  1  0
 18  4  1  0
 31 19  1  0
 16  9  1  0
 28 21  2  0
M  END
>  <molecule_chembl_id>  (498) 
CHEMBL3900593

>  <canonical_smiles>  (498) 
CCOc1ccc(CC2CC(C(=O)NO)C2)cc1-c1nc2c(CC)nn(C)c2c(=O)[nH]1

>  <pchembl_value_mean>  (498) 
6.12

>  <document_chembl_id>  (498) 
CHEMBL3860059

$$$$

     RDKit          2D

 30 33  0  0  0  0  0  0  0  0999 V2000
    3.7500    1.2990    0.0000 O   0  0  0  0  0  0  0  0  0  0  0  0
    3.0000    0.0000    0.0000 C   0  0  0  0  0  0  0  0  0  0  0  0
    3.7500   -1.2990    0.0000 N   0  0  0  0  0  0  0  0  0  0  0  0
    5.2500   -1.2990    0.0000 O   0  0  0  0  0  0  0  0  0  0  0  0
    1.5000    0.0000    0.0000 C   0  0  0  0  0  0  0  0  0  0  0  0
    0.7500   -1.2990    0.0000 C   0  0  0  0  0  0  0  0  0  0  0  0
   -0.7500   -1.2990    0.0000 C   0  0  0  0  0  0  0  0  0  0  0  0
   -1.5000    0.0000    0.0000 C   0  0  0  0  0  0  0  0  0  0  0  0
   -3.0000    0.0000    0.0000 C   0  0  0  0  0  0  0  0  0  0  0  0
   -3.7500    1.2990    0.0000 N   0  0  0  0  0  0  0  0  0  0  0  0
   -5.2418    1.4558    0.0000 N   0  0  0  0  0  0  0  0  0  0  0  0
   -5.5537    2.9231    0.0000 C   0  0  0  0  0  0  0  0  0  0  0  0
   -6.9240    3.5332    0.0000 C   0  0  0  0  0  0  0  0  0  0  0  0
   -7.0808    5.0249    0.0000 C   0  0  0  0  0  0  0  0  0  0  0  0
   -8.4511    5.6350    0.0000 C   0  0  0  0  0  0  0  0  0  0  0  0
   -9.6646    4.7534    0.0000 C   0  0  0  0  0  0  0  0  0  0  0  0
  -11.0349    5.3635    0.0000 F   0  0  0  0  0  0  0  0  0  0  0  0
   -9.5078    3.2616    0.0000 C   0  0  0  0  0  0  0  0  0  0  0  0
   -8.1375    2.6515    0.0000 C   0  0  0  0  0  0  0  0  0  0  0  0
   -4.2546    3.6731    0.0000 C   0  0  0  0  0  0  0  0  0  0  0  0
   -3.1399    2.6694    0.0000 C   0  0  0  0  0  0  0  0  0  0  0  0
   -1.6727    2.9812    0.0000 C   0  0  0  0  0  0  0  0  0  0  0  0
   -1.2091    4.4078    0.0000 C   0  0  0  0  0  0  0  0  0  0  0  0
    0.2581    4.7197    0.0000 C   0  0  0  0  0  0  0  0  0  0  0  0
    0.7216    6.1463    0.0000 C   0  0  0  0  0  0  0  0  0  0  0  0
   -0.2821    7.2610    0.0000 C   0  0  0  0  0  0  0  0  0  0  0  0
   -1.7493    6.9491    0.0000 C   0  0  0  0  0  0  0  0  0  0  0  0
   -2.2128    5.5225    0.0000 C   0  0  0  0  0  0  0  0  0  0  0  0
   -0.7500    1.2990    0.0000 C   0  0  0  0  0  0  0  0  0  0  0  0
    0.7500    1.2990    0.0000 C   0  0  0  0  0  0  0  0  0  0  0  0
  1  2  2  0
  2  3  1  0
  3  4  1  0
  2  5  1  0
  5  6  2  0
  6  7  1  0
  7  8  2  0
  8  9  1  0
  9 10  1  0
 10 11  1  0
 11 12  2  0
 12 13  1  0
 13 14  2  0
 14 15  1  0
 15 16  2  0
 16 17  1  0
 16 18  1  0
 18 19  2  0
 12 20  1  0
 20 21  2  0
 21 22  1  0
 22 23  1  0
 23 24  2  0
 24 25  1  0
 25 26  2  0
 26 27  1  0
 27 28  2  0
  8 29  1  0
 29 30  2  0
 30  5  1  0
 21 10  1  0
 28 23  1  0
 19 13  1  0
M  END
>  <molecule_chembl_id>  (499) 
CHEMBL4226489

>  <canonical_smiles>  (499) 
O=C(NO)c1ccc(Cn2nc(-c3ccc(F)cc3)cc2Cc2ccccc2)cc1

>  <pchembl_value_mean>  (499) 
6.12

>  <document_chembl_id>  (499) 
CHEMBL4219109

$$$$

     RDKit          2D

 23 24  0  0  0  0  0  0  0  0999 V2000
  -12.7500   -6.4952    0.0000 O   0  0  0  0  0  0  0  0  0  0  0  0
  -12.0000   -7.7942    0.0000 C   0  0  0  0  0  0  0  0  0  0  0  0
  -10.5000   -7.7942    0.0000 C   0  0  0  0  0  0  0  0  0  0  0  0
   -9.7500   -6.4952    0.0000 C   0  0  0  0  0  0  0  0  0  0  0  0
   -8.2500   -6.4952    0.0000 C   0  0  0  0  0  0  0  0  0  0  0  0
   -7.5000   -5.1962    0.0000 C   0  0  0  0  0  0  0  0  0  0  0  0
   -6.0000   -5.1962    0.0000 C   0  0  0  0  0  0  0  0  0  0  0  0
   -5.2500   -3.8971    0.0000 O   0  0  0  0  0  0  0  0  0  0  0  0
   -3.7500   -3.8971    0.0000 N   0  0  0  0  0  0  0  0  0  0  0  0
   -3.0000   -2.5981    0.0000 C   0  0  0  0  0  0  0  0  0  0  0  0
   -3.7500   -1.2990    0.0000 O   0  0  0  0  0  0  0  0  0  0  0  0
   -1.5000   -2.5981    0.0000 C   0  0  0  0  0  0  0  0  0  0  0  0
   -0.7500   -3.8971    0.0000 N   0  0  0  0  0  0  0  0  0  0  0  0
    0.7500   -3.8971    0.0000 C   0  0  0  0  0  0  0  0  0  0  0  0
    1.5000   -2.5981    0.0000 C   0  0  0  0  0  0  0  0  0  0  0  0
    0.7500   -1.2990    0.0000 C   0  0  0  0  0  0  0  0  0  0  0  0
    1.5000    0.0000    0.0000 C   0  0  0  0  0  0  0  0  0  0  0  0
    0.7500    1.2990    0.0000 C   0  0  0  0  0  0  0  0  0  0  0  0
   -0.7500    1.2990    0.0000 C   0  0  0  0  0  0  0  0  0  0  0  0
   -1.5000    0.0000    0.0000 C   0  0  0  0  0  0  0  0  0  0  0  0
   -0.7500   -1.2990    0.0000 C   0  0  0  0  0  0  0  0  0  0  0  0
  -12.7500   -9.0933    0.0000 N   0  0  0  0  0  0  0  0  0  0  0  0
  -14.2500   -9.0933    0.0000 O   0  0  0  0  0  0  0  0  0  0  0  0
  1  2  2  0
  2  3  1  0
  3  4  1  0
  4  5  1  0
  5  6  1  0
  6  7  1  0
  7  8  1  0
  8  9  1  0
  9 10  1  0
 10 11  2  0
 10 12  1  0
 12 13  2  0
 13 14  1  0
 14 15  2  0
 15 16  1  0
 16 17  2  0
 17 18  1  0
 18 19  2  0
 19 20  1  0
 20 21  2  0
  2 22  1  0
 22 23  1  0
 21 12  1  0
 21 16  1  0
M  END
>  <molecule_chembl_id>  (500) 
CHEMBL4870868

>  <canonical_smiles>  (500) 
O=C(CCCCCONC(=O)c1nccc2ccccc12)NO

>  <pchembl_value_mean>  (500) 
6.12

>  <document_chembl_id>  (500) 
CHEMBL4823243

$$$$

     RDKit          2D

 32 35  0  0  0  0  0  0  0  0999 V2000
    3.7500    1.2990    0.0000 O   0  0  0  0  0  0  0  0  0  0  0  0
    3.0000    0.0000    0.0000 C   0  0  0  0  0  0  0  0  0  0  0  0
    3.7500   -1.2990    0.0000 N   0  0  0  0  0  0  0  0  0  0  0  0
    5.2500   -1.2990    0.0000 O   0  0  0  0  0  0  0  0  0  0  0  0
    1.5000    0.0000    0.0000 C   0  0  0  0  0  0  0  0  0  0  0  0
    0.7500   -1.2990    0.0000 C   0  0  0  0  0  0  0  0  0  0  0  0
   -0.7500   -1.2990    0.0000 C   0  0  0  0  0  0  0  0  0  0  0  0
   -1.5000    0.0000    0.0000 C   0  0  0  0  0  0  0  0  0  0  0  0
   -3.0000    0.0000    0.0000 C   0  0  0  0  0  0  0  0  0  0  0  0
   -3.7500    1.2990    0.0000 N   0  0  0  0  0  0  0  0  0  0  0  0
   -5.2500    1.2990    0.0000 C   0  0  0  0  0  0  0  0  0  0  0  0
   -6.0000    0.0000    0.0000 O   0  0  0  0  0  0  0  0  0  0  0  0
   -6.0000    2.5981    0.0000 C   0  0  0  0  0  0  0  0  0  0  0  0
   -7.4918    2.7549    0.0000 N   0  0  0  0  0  0  0  0  0  0  0  0
   -7.8037    4.2221    0.0000 C   0  0  0  0  0  0  0  0  0  0  0  0
   -9.1740    4.8322    0.0000 C   0  0  0  0  0  0  0  0  0  0  0  0
   -9.3308    6.3240    0.0000 C   0  0  0  0  0  0  0  0  0  0  0  0
  -10.7011    6.9341    0.0000 C   0  0  0  0  0  0  0  0  0  0  0  0
  -11.9146    6.0524    0.0000 C   0  0  0  0  0  0  0  0  0  0  0  0
  -11.7578    4.5606    0.0000 C   0  0  0  0  0  0  0  0  0  0  0  0
  -10.3875    3.9505    0.0000 C   0  0  0  0  0  0  0  0  0  0  0  0
   -6.5046    4.9721    0.0000 C   0  0  0  0  0  0  0  0  0  0  0  0
   -5.3899    3.9684    0.0000 C   0  0  0  0  0  0  0  0  0  0  0  0
   -3.9227    4.2803    0.0000 C   0  0  0  0  0  0  0  0  0  0  0  0
   -2.9190    3.1655    0.0000 C   0  0  0  0  0  0  0  0  0  0  0  0
   -1.4518    3.4774    0.0000 C   0  0  0  0  0  0  0  0  0  0  0  0
   -0.9882    4.9040    0.0000 C   0  0  0  0  0  0  0  0  0  0  0  0
   -1.9919    6.0187    0.0000 C   0  0  0  0  0  0  0  0  0  0  0  0
   -1.5284    7.4453    0.0000 Br  0  0  0  0  0  0  0  0  0  0  0  0
   -3.4591    5.7068    0.0000 C   0  0  0  0  0  0  0  0  0  0  0  0
   -0.7500    1.2990    0.0000 C   0  0  0  0  0  0  0  0  0  0  0  0
    0.7500    1.2990    0.0000 C   0  0  0  0  0  0  0  0  0  0  0  0
  1  2  2  0
  2  3  1  0
  3  4  1  0
  2  5  1  0
  5  6  2  0
  6  7  1  0
  7  8  2  0
  8  9  1  0
  9 10  1  0
 10 11  1  0
 11 12  2  0
 11 13  1  0
 13 14  1  0
 14 15  1  0
 15 16  1  0
 16 17  2  0
 17 18  1  0
 18 19  2  0
 19 20  1  0
 20 21  2  0
 15 22  2  0
 22 23  1  0
 23 24  1  0
 24 25  2  0
 25 26  1  0
 26 27  2  0
 27 28  1  0
 28 29  1  0
 28 30  2  0
  8 31  1  0
 31 32  2  0
 32  5  1  0
 23 13  2  0
 30 24  1  0
 21 16  1  0
M  END
>  <molecule_chembl_id>  (501) 
CHEMBL3670679

>  <canonical_smiles>  (501) 
O=C(NO)c1ccc(CNC(=O)c2[nH]c(-c3ccccc3)cc2-c2cccc(Br)c2)cc1

>  <pchembl_value_mean>  (501) 
6.12

>  <document_chembl_id>  (501) 
CHEMBL3638813

$$$$

     RDKit          2D

 26 28  0  0  0  0  0  0  0  0999 V2000
    5.8875   -3.9505    0.0000 N   0  0  0  0  0  0  0  0  0  0  0  0
    4.6740   -4.8322    0.0000 C   0  0  0  0  0  0  0  0  0  0  0  0
    4.8308   -6.3240    0.0000 C   0  0  0  0  0  0  0  0  0  0  0  0
    6.2011   -6.9341    0.0000 C   0  0  0  0  0  0  0  0  0  0  0  0
    6.3579   -8.4259    0.0000 C   0  0  0  0  0  0  0  0  0  0  0  0
    7.7282   -9.0360    0.0000 C   0  0  0  0  0  0  0  0  0  0  0  0
    7.8850  -10.5278    0.0000 C   0  0  0  0  0  0  0  0  0  0  0  0
    9.2553  -11.1379    0.0000 C   0  0  0  0  0  0  0  0  0  0  0  0
   10.4688  -10.2562    0.0000 O   0  0  0  0  0  0  0  0  0  0  0  0
    9.4121  -12.6296    0.0000 C   0  0  0  0  0  0  0  0  0  0  0  0
   10.7111  -13.3796    0.0000 C   0  0  0  0  0  0  0  0  0  0  0  0
   10.3993  -14.8469    0.0000 O   0  0  0  0  0  0  0  0  0  0  0  0
    8.9075  -15.0037    0.0000 C   0  0  0  0  0  0  0  0  0  0  0  0
    8.2974  -13.6333    0.0000 N   0  0  0  0  0  0  0  0  0  0  0  0
    3.3037   -4.2221    0.0000 C   0  0  0  0  0  0  0  0  0  0  0  0
    2.0046   -4.9721    0.0000 N   0  0  0  0  0  0  0  0  0  0  0  0
    0.8899   -3.9684    0.0000 C   0  0  0  0  0  0  0  0  0  0  0  0
    1.5000   -2.5981    0.0000 C   0  0  0  0  0  0  0  0  0  0  0  0
    0.7500   -1.2990    0.0000 C   0  0  0  0  0  0  0  0  0  0  0  0
    1.5000    0.0000    0.0000 C   0  0  0  0  0  0  0  0  0  0  0  0
    0.7500    1.2990    0.0000 C   0  0  0  0  0  0  0  0  0  0  0  0
   -0.7500    1.2990    0.0000 C   0  0  0  0  0  0  0  0  0  0  0  0
   -1.5000    0.0000    0.0000 C   0  0  0  0  0  0  0  0  0  0  0  0
   -0.7500   -1.2990    0.0000 C   0  0  0  0  0  0  0  0  0  0  0  0
   -1.5000   -2.5981    0.0000 F   0  0  0  0  0  0  0  0  0  0  0  0
    2.9918   -2.7549    0.0000 N   0  0  0  0  0  0  0  0  0  0  0  0
  1  2  1  0
  2  3  1  0
  3  4  1  0
  4  5  1  0
  5  6  1  0
  6  7  1  0
  7  8  1  0
  8  9  2  0
  8 10  1  0
 10 11  2  0
 11 12  1  0
 12 13  1  0
 13 14  2  0
  2 15  1  0
 15 16  2  0
 16 17  1  0
 17 18  2  0
 18 19  1  0
 19 20  2  0
 20 21  1  0
 21 22  2  0
 22 23  1  0
 23 24  2  0
 24 25  1  0
 18 26  1  0
 14 10  1  0
 26 15  1  0
 24 19  1  0
M  END
>  <molecule_chembl_id>  (502) 
CHEMBL4636534

>  <canonical_smiles>  (502) 
NC(CCCCCC(=O)c1cocn1)c1ncc(-c2ccccc2F)[nH]1

>  <pchembl_value_mean>  (502) 
6.13

>  <document_chembl_id>  (502) 
CHEMBL4622967

$$$$

     RDKit          2D

 34 38  0  0  0  0  0  0  0  0999 V2000
    5.1140    4.4716    0.0000 C   0  0  0  0  0  0  0  0  0  0  0  0
    3.8149    5.2216    0.0000 C   0  0  0  0  0  0  0  0  0  0  0  0
    3.6581    6.7134    0.0000 C   0  0  0  0  0  0  0  0  0  0  0  0
    2.1909    7.0252    0.0000 N   0  0  0  0  0  0  0  0  0  0  0  0
    1.4409    5.7262    0.0000 N   0  0  0  0  0  0  0  0  0  0  0  0
    2.4446    4.6115    0.0000 C   0  0  0  0  0  0  0  0  0  0  0  0
    2.1328    3.1443    0.0000 N   0  0  0  0  0  0  0  0  0  0  0  0
    0.7062    2.6807    0.0000 C   0  0  0  0  0  0  0  0  0  0  0  0
   -0.4086    3.6844    0.0000 N   0  0  0  0  0  0  0  0  0  0  0  0
   -1.8351    3.2209    0.0000 C   0  0  0  0  0  0  0  0  0  0  0  0
   -2.9499    4.2246    0.0000 Cl  0  0  0  0  0  0  0  0  0  0  0  0
   -2.1470    1.7537    0.0000 N   0  0  0  0  0  0  0  0  0  0  0  0
   -1.0323    0.7500    0.0000 C   0  0  0  0  0  0  0  0  0  0  0  0
    0.3943    1.2135    0.0000 C   0  0  0  0  0  0  0  0  0  0  0  0
    1.2760    0.0000    0.0000 N   0  0  0  0  0  0  0  0  0  0  0  0
    0.3943   -1.2135    0.0000 C   0  0  0  0  0  0  0  0  0  0  0  0
   -1.0323   -0.7500    0.0000 N   0  0  0  0  0  0  0  0  0  0  0  0
   -2.2458   -1.6317    0.0000 C   0  0  0  0  0  0  0  0  0  0  0  0
   -2.0890   -3.1235    0.0000 C   0  0  0  0  0  0  0  0  0  0  0  0
   -3.3025   -4.0051    0.0000 C   0  0  0  0  0  0  0  0  0  0  0  0
   -3.1458   -5.4969    0.0000 C   0  0  0  0  0  0  0  0  0  0  0  0
   -1.7754   -6.1070    0.0000 C   0  0  0  0  0  0  0  0  0  0  0  0
   -1.6186   -7.5988    0.0000 C   0  0  0  0  0  0  0  0  0  0  0  0
   -0.2483   -8.2089    0.0000 O   0  0  0  0  0  0  0  0  0  0  0  0
   -2.8322   -8.4805    0.0000 N   0  0  0  0  0  0  0  0  0  0  0  0
   -2.6754   -9.9723    0.0000 C   0  0  0  0  0  0  0  0  0  0  0  0
   -3.8889  -10.8539    0.0000 C   0  0  0  0  0  0  0  0  0  0  0  0
   -3.7321  -12.3457    0.0000 C   0  0  0  0  0  0  0  0  0  0  0  0
   -2.3618  -12.9558    0.0000 C   0  0  0  0  0  0  0  0  0  0  0  0
   -1.1483  -12.0742    0.0000 C   0  0  0  0  0  0  0  0  0  0  0  0
   -1.3051  -10.5824    0.0000 C   0  0  0  0  0  0  0  0  0  0  0  0
   -0.0915   -9.7007    0.0000 N   0  0  0  0  0  0  0  0  0  0  0  0
   -0.5619   -5.2253    0.0000 C   0  0  0  0  0  0  0  0  0  0  0  0
   -0.7187   -3.7336    0.0000 C   0  0  0  0  0  0  0  0  0  0  0  0
  1  2  1  0
  2  3  2  0
  3  4  1  0
  4  5  1  0
  5  6  2  0
  6  7  1  0
  7  8  1  0
  8  9  2  0
  9 10  1  0
 10 11  1  0
 10 12  2  0
 12 13  1  0
 13 14  2  0
 14 15  1  0
 15 16  2  0
 16 17  1  0
 17 18  1  0
 18 19  1  0
 19 20  2  0
 20 21  1  0
 21 22  2  0
 22 23  1  0
 23 24  2  0
 23 25  1  0
 25 26  1  0
 26 27  2  0
 27 28  1  0
 28 29  2  0
 29 30  1  0
 30 31  2  0
 31 32  1  0
 22 33  1  0
 33 34  2  0
  6  2  1  0
 14  8  1  0
 34 19  1  0
 17 13  1  0
 31 26  1  0
M  END
>  <molecule_chembl_id>  (503) 
CHEMBL4781354

>  <canonical_smiles>  (503) 
Cc1c[nH]nc1Nc1nc(Cl)nc2c1ncn2Cc1ccc(C(=O)Nc2ccccc2N)cc1

>  <pchembl_value_mean>  (503) 
6.13

>  <document_chembl_id>  (503) 
CHEMBL4765296

$$$$

     RDKit          2D

 36 40  0  0  0  0  0  0  0  0999 V2000
    9.0866   10.8673    0.0000 N   0  0  0  0  0  0  0  0  0  0  0  0
   10.2013    9.8636    0.0000 C   0  0  0  0  0  0  0  0  0  0  0  0
   11.6279   10.3271    0.0000 C   0  0  0  0  0  0  0  0  0  0  0  0
   12.7426    9.3234    0.0000 C   0  0  0  0  0  0  0  0  0  0  0  0
   12.4307    7.8562    0.0000 C   0  0  0  0  0  0  0  0  0  0  0  0
   13.5454    6.8525    0.0000 C   0  0  0  0  0  0  0  0  0  0  0  0
   15.0127    7.1643    0.0000 C   0  0  0  0  0  0  0  0  0  0  0  0
   15.7627    5.8653    0.0000 C   0  0  0  0  0  0  0  0  0  0  0  0
   14.7590    4.7506    0.0000 C   0  0  0  0  0  0  0  0  0  0  0  0
   13.3886    5.3607    0.0000 S   0  0  0  0  0  0  0  0  0  0  0  0
   11.0041    7.3926    0.0000 C   0  0  0  0  0  0  0  0  0  0  0  0
    9.8894    8.3963    0.0000 C   0  0  0  0  0  0  0  0  0  0  0  0
    8.4628    7.9328    0.0000 N   0  0  0  0  0  0  0  0  0  0  0  0
    7.3481    8.9365    0.0000 C   0  0  0  0  0  0  0  0  0  0  0  0
    7.6600   10.4037    0.0000 O   0  0  0  0  0  0  0  0  0  0  0  0
    5.9215    8.4730    0.0000 C   0  0  0  0  0  0  0  0  0  0  0  0
    4.8068    9.4767    0.0000 C   0  0  0  0  0  0  0  0  0  0  0  0
    3.3802    9.0132    0.0000 C   0  0  0  0  0  0  0  0  0  0  0  0
    3.0684    7.5459    0.0000 C   0  0  0  0  0  0  0  0  0  0  0  0
    1.6418    7.0824    0.0000 C   0  0  0  0  0  0  0  0  0  0  0  0
    1.3299    5.6152    0.0000 N   0  0  0  0  0  0  0  0  0  0  0  0
    2.4446    4.6115    0.0000 C   0  0  0  0  0  0  0  0  0  0  0  0
    3.8712    5.0750    0.0000 C   0  0  0  0  0  0  0  0  0  0  0  0
    4.9859    4.0713    0.0000 O   0  0  0  0  0  0  0  0  0  0  0  0
   -0.0967    5.1517    0.0000 C   0  0  0  0  0  0  0  0  0  0  0  0
   -0.4086    3.6844    0.0000 C   0  0  0  0  0  0  0  0  0  0  0  0
   -1.8351    3.2209    0.0000 C   0  0  0  0  0  0  0  0  0  0  0  0
   -2.1470    1.7537    0.0000 C   0  0  0  0  0  0  0  0  0  0  0  0
   -1.0323    0.7500    0.0000 C   0  0  0  0  0  0  0  0  0  0  0  0
    0.3943    1.2135    0.0000 C   0  0  0  0  0  0  0  0  0  0  0  0
    0.7062    2.6807    0.0000 C   0  0  0  0  0  0  0  0  0  0  0  0
    1.2760    0.0000    0.0000 O   0  0  0  0  0  0  0  0  0  0  0  0
    0.3943   -1.2135    0.0000 C   0  0  0  0  0  0  0  0  0  0  0  0
   -1.0323   -0.7500    0.0000 O   0  0  0  0  0  0  0  0  0  0  0  0
    4.1831    6.5422    0.0000 C   0  0  0  0  0  0  0  0  0  0  0  0
    5.6097    7.0058    0.0000 C   0  0  0  0  0  0  0  0  0  0  0  0
  1  2  1  0
  2  3  2  0
  3  4  1  0
  4  5  2  0
  5  6  1  0
  6  7  2  0
  7  8  1  0
  8  9  2  0
  9 10  1  0
  5 11  1  0
 11 12  2  0
 12 13  1  0
 13 14  1  0
 14 15  2  0
 14 16  1  0
 16 17  2  0
 17 18  1  0
 18 19  2  0
 19 20  1  0
 20 21  1  0
 21 22  1  0
 22 23  1  0
 23 24  1  0
 21 25  1  0
 25 26  1  0
 26 27  2  0
 27 28  1  0
 28 29  2  0
 29 30  1  0
 30 31  2  0
 30 32  1  0
 32 33  1  0
 33 34  1  0
 19 35  1  0
 35 36  2  0
 12  2  1  0
 36 16  1  0
 10  6  1  0
 31 26  1  0
 34 29  1  0
M  END
>  <molecule_chembl_id>  (504) 
CHEMBL1957463

>  <canonical_smiles>  (504) 
Nc1ccc(-c2cccs2)cc1NC(=O)c1ccc(CN(CCO)Cc2ccc3c(c2)OCO3)cc1

>  <pchembl_value_mean>  (504) 
6.13

>  <document_chembl_id>  (504) 
CHEMBL1955769

$$$$

     RDKit          2D

 22 23  0  0  0  0  0  0  0  0999 V2000
    3.7500    1.2990    0.0000 O   0  0  0  0  0  0  0  0  0  0  0  0
    3.0000    0.0000    0.0000 C   0  0  0  0  0  0  0  0  0  0  0  0
    3.7500   -1.2990    0.0000 N   0  0  0  0  0  0  0  0  0  0  0  0
    5.2500   -1.2990    0.0000 O   0  0  0  0  0  0  0  0  0  0  0  0
    1.5000    0.0000    0.0000 C   0  0  0  0  0  0  0  0  0  0  0  0
    0.7500   -1.2990    0.0000 C   0  0  0  0  0  0  0  0  0  0  0  0
   -0.7500   -1.2990    0.0000 N   0  0  0  0  0  0  0  0  0  0  0  0
   -1.5000    0.0000    0.0000 C   0  0  0  0  0  0  0  0  0  0  0  0
   -3.0000    0.0000    0.0000 N   0  0  0  0  0  0  0  0  0  0  0  0
   -3.7500    1.2990    0.0000 C   0  0  0  0  0  0  0  0  0  0  0  0
   -5.2500    1.2990    0.0000 C   0  0  0  0  0  0  0  0  0  0  0  0
   -6.0000    2.5981    0.0000 C   0  0  0  0  0  0  0  0  0  0  0  0
   -7.5000    2.5981    0.0000 C   0  0  0  0  0  0  0  0  0  0  0  0
   -8.2500    1.2990    0.0000 C   0  0  0  0  0  0  0  0  0  0  0  0
   -7.5000    0.0000    0.0000 C   0  0  0  0  0  0  0  0  0  0  0  0
   -6.0000    0.0000    0.0000 C   0  0  0  0  0  0  0  0  0  0  0  0
   -5.2500   -1.2990    0.0000 C   0  0  0  0  0  0  0  0  0  0  0  0
   -4.5000   -2.5981    0.0000 F   0  0  0  0  0  0  0  0  0  0  0  0
   -6.5490   -2.0490    0.0000 F   0  0  0  0  0  0  0  0  0  0  0  0
   -3.9510   -0.5490    0.0000 F   0  0  0  0  0  0  0  0  0  0  0  0
   -0.7500    1.2990    0.0000 N   0  0  0  0  0  0  0  0  0  0  0  0
    0.7500    1.2990    0.0000 C   0  0  0  0  0  0  0  0  0  0  0  0
  1  2  2  0
  2  3  1  0
  3  4  1  0
  2  5  1  0
  5  6  2  0
  6  7  1  0
  7  8  2  0
  8  9  1  0
  9 10  1  0
 10 11  1  0
 11 12  2  0
 12 13  1  0
 13 14  2  0
 14 15  1  0
 15 16  2  0
 16 17  1  0
 17 18  1  0
 17 19  1  0
 17 20  1  0
  8 21  1  0
 21 22  2  0
 22  5  1  0
 16 11  1  0
M  END
>  <molecule_chembl_id>  (505) 
CHEMBL3655921

>  <canonical_smiles>  (505) 
O=C(NO)c1cnc(NCc2ccccc2C(F)(F)F)nc1

>  <pchembl_value_mean>  (505) 
6.14

>  <document_chembl_id>  (505) 
CHEMBL3639071

$$$$

     RDKit          2D

 23 25  0  0  0  0  0  0  0  0999 V2000
   -7.5000   -5.1962    0.0000 O   0  0  0  0  0  0  0  0  0  0  0  0
   -6.0000   -5.1962    0.0000 C   0  0  0  0  0  0  0  0  0  0  0  0
   -5.2500   -6.4952    0.0000 N   0  0  0  0  0  0  0  0  0  0  0  0
   -6.0000   -7.7942    0.0000 O   0  0  0  0  0  0  0  0  0  0  0  0
   -5.2500   -3.8971    0.0000 C   0  0  0  0  0  0  0  0  0  0  0  0
   -3.7500   -3.8971    0.0000 C   0  0  0  0  0  0  0  0  0  0  0  0
   -3.0000   -2.5981    0.0000 N   0  0  0  0  0  0  0  0  0  0  0  0
   -3.7500   -1.2990    0.0000 C   0  0  0  0  0  0  0  0  0  0  0  0
   -3.0000    0.0000    0.0000 N   0  0  0  0  0  0  0  0  0  0  0  0
   -3.7500    1.2990    0.0000 C   0  0  0  0  0  0  0  0  0  0  0  0
   -2.3405    1.8121    0.0000 C   0  0  0  0  0  0  0  0  0  0  0  0
   -1.1914    0.8479    0.0000 C   0  0  0  0  0  0  0  0  0  0  0  0
    0.2181    1.3609    0.0000 C   0  0  0  0  0  0  0  0  0  0  0  0
    0.4786    2.8381    0.0000 C   0  0  0  0  0  0  0  0  0  0  0  0
   -0.6704    3.8023    0.0000 C   0  0  0  0  0  0  0  0  0  0  0  0
   -2.0800    3.2893    0.0000 C   0  0  0  0  0  0  0  0  0  0  0  0
   -4.8991    0.3349    0.0000 C   0  0  0  0  0  0  0  0  0  0  0  0
   -6.3086    0.8479    0.0000 C   0  0  0  0  0  0  0  0  0  0  0  0
   -6.5691    2.3251    0.0000 O   0  0  0  0  0  0  0  0  0  0  0  0
   -5.4200    3.2893    0.0000 C   0  0  0  0  0  0  0  0  0  0  0  0
   -4.0105    2.7762    0.0000 C   0  0  0  0  0  0  0  0  0  0  0  0
   -5.2500   -1.2990    0.0000 N   0  0  0  0  0  0  0  0  0  0  0  0
   -6.0000   -2.5981    0.0000 C   0  0  0  0  0  0  0  0  0  0  0  0
  1  2  2  0
  2  3  1  0
  3  4  1  0
  2  5  1  0
  5  6  2  0
  6  7  1  0
  7  8  2  0
  8  9  1  0
  9 10  1  0
 10 11  1  0
 11 12  2  0
 12 13  1  0
 13 14  2  0
 14 15  1  0
 15 16  2  0
 10 17  1  0
 17 18  1  0
 18 19  1  0
 19 20  1  0
 20 21  1  0
  8 22  1  0
 22 23  2  0
 23  5  1  0
 21 10  1  0
 16 11  1  0
M  END
>  <molecule_chembl_id>  (506) 
CHEMBL3655972

>  <canonical_smiles>  (506) 
O=C(NO)c1cnc(NC2(c3ccccc3)CCOCC2)nc1

>  <pchembl_value_mean>  (506) 
6.14

>  <document_chembl_id>  (506) 
CHEMBL3639071

$$$$

     RDKit          2D

 20 21  0  0  0  0  0  0  0  0999 V2000
    8.2500   -1.2990    0.0000 O   0  0  0  0  0  0  0  0  0  0  0  0
    7.5000   -2.5981    0.0000 C   0  0  0  0  0  0  0  0  0  0  0  0
    6.0000   -2.5981    0.0000 C   0  0  0  0  0  0  0  0  0  0  0  0
    5.2500   -1.2990    0.0000 C   0  0  0  0  0  0  0  0  0  0  0  0
    3.7500   -1.2990    0.0000 C   0  0  0  0  0  0  0  0  0  0  0  0
    3.0000    0.0000    0.0000 C   0  0  0  0  0  0  0  0  0  0  0  0
    1.5000    0.0000    0.0000 C   0  0  0  0  0  0  0  0  0  0  0  0
    0.7500   -1.2990    0.0000 C   0  0  0  0  0  0  0  0  0  0  0  0
   -0.7500   -1.2990    0.0000 C   0  0  0  0  0  0  0  0  0  0  0  0
   -1.5000    0.0000    0.0000 C   0  0  0  0  0  0  0  0  0  0  0  0
   -3.0000    0.0000    0.0000 C   0  0  0  0  0  0  0  0  0  0  0  0
   -3.7500    1.2990    0.0000 C   0  0  0  0  0  0  0  0  0  0  0  0
   -5.2500    1.2990    0.0000 C   0  0  0  0  0  0  0  0  0  0  0  0
   -6.0000    0.0000    0.0000 C   0  0  0  0  0  0  0  0  0  0  0  0
   -5.2500   -1.2990    0.0000 C   0  0  0  0  0  0  0  0  0  0  0  0
   -3.7500   -1.2990    0.0000 C   0  0  0  0  0  0  0  0  0  0  0  0
   -0.7500    1.2990    0.0000 C   0  0  0  0  0  0  0  0  0  0  0  0
    0.7500    1.2990    0.0000 C   0  0  0  0  0  0  0  0  0  0  0  0
    8.2500   -3.8971    0.0000 N   0  0  0  0  0  0  0  0  0  0  0  0
    9.7500   -3.8971    0.0000 O   0  0  0  0  0  0  0  0  0  0  0  0
  1  2  2  0
  2  3  1  0
  3  4  1  0
  4  5  1  0
  5  6  1  0
  6  7  1  0
  7  8  2  0
  8  9  1  0
  9 10  2  0
 10 11  1  0
 11 12  2  0
 12 13  1  0
 13 14  2  0
 14 15  1  0
 15 16  2  0
 10 17  1  0
 17 18  2  0
  2 19  1  0
 19 20  1  0
 18  7  1  0
 16 11  1  0
M  END
>  <molecule_chembl_id>  (507) 
CHEMBL541239

>  <canonical_smiles>  (507) 
O=C(CCCCc1ccc(-c2ccccc2)cc1)NO

>  <pchembl_value_mean>  (507) 
6.14

>  <document_chembl_id>  (507) 
CHEMBL1158371

$$$$

     RDKit          2D

 27 29  0  0  0  0  0  0  0  0999 V2000
    3.0000    0.0000    0.0000 N   0  0  0  0  0  0  0  0  0  0  0  0
    1.5000    0.0000    0.0000 C   0  0  0  0  0  0  0  0  0  0  0  0
    0.7500   -1.2990    0.0000 C   0  0  0  0  0  0  0  0  0  0  0  0
   -0.7500   -1.2990    0.0000 C   0  0  0  0  0  0  0  0  0  0  0  0
   -1.5000    0.0000    0.0000 C   0  0  0  0  0  0  0  0  0  0  0  0
   -0.7500    1.2990    0.0000 C   0  0  0  0  0  0  0  0  0  0  0  0
    0.7500    1.2990    0.0000 C   0  0  0  0  0  0  0  0  0  0  0  0
    1.5000    2.5981    0.0000 N   0  0  0  0  0  0  0  0  0  0  0  0
    0.7500    3.8971    0.0000 C   0  0  0  0  0  0  0  0  0  0  0  0
   -0.7500    3.8971    0.0000 O   0  0  0  0  0  0  0  0  0  0  0  0
    1.5000    5.1962    0.0000 C   0  0  0  0  0  0  0  0  0  0  0  0
    0.7500    6.4952    0.0000 C   0  0  0  0  0  0  0  0  0  0  0  0
    1.5000    7.7942    0.0000 C   0  0  0  0  0  0  0  0  0  0  0  0
    0.7500    9.0933    0.0000 C   0  0  0  0  0  0  0  0  0  0  0  0
    1.5000   10.3923    0.0000 C   0  0  0  0  0  0  0  0  0  0  0  0
    0.7500   11.6913    0.0000 C   0  0  0  0  0  0  0  0  0  0  0  0
    1.5000   12.9904    0.0000 C   0  0  0  0  0  0  0  0  0  0  0  0
    0.8899   14.3607    0.0000 N   0  0  0  0  0  0  0  0  0  0  0  0
    2.0046   15.3644    0.0000 C   0  0  0  0  0  0  0  0  0  0  0  0
    1.8478   16.8562    0.0000 C   0  0  0  0  0  0  0  0  0  0  0  0
    3.0613   17.7379    0.0000 C   0  0  0  0  0  0  0  0  0  0  0  0
    2.9046   19.2296    0.0000 C   0  0  0  0  0  0  0  0  0  0  0  0
    1.5342   19.8397    0.0000 C   0  0  0  0  0  0  0  0  0  0  0  0
    0.3207   18.9581    0.0000 C   0  0  0  0  0  0  0  0  0  0  0  0
    0.4775   17.4663    0.0000 C   0  0  0  0  0  0  0  0  0  0  0  0
    3.3037   14.6144    0.0000 N   0  0  0  0  0  0  0  0  0  0  0  0
    2.9918   13.1472    0.0000 O   0  0  0  0  0  0  0  0  0  0  0  0
  1  2  1  0
  2  3  2  0
  3  4  1  0
  4  5  2  0
  5  6  1  0
  6  7  2  0
  7  8  1  0
  8  9  1  0
  9 10  2  0
  9 11  1  0
 11 12  1  0
 12 13  1  0
 13 14  1  0
 14 15  1  0
 15 16  1  0
 16 17  1  0
 17 18  2  0
 18 19  1  0
 19 20  1  0
 20 21  2  0
 21 22  1  0
 22 23  2  0
 23 24  1  0
 24 25  2  0
 19 26  2  0
 26 27  1  0
  7  2  1  0
 27 17  1  0
 25 20  1  0
M  END
>  <molecule_chembl_id>  (508) 
CHEMBL3585969

>  <canonical_smiles>  (508) 
Nc1ccccc1NC(=O)CCCCCCc1nc(-c2ccccc2)no1

>  <pchembl_value_mean>  (508) 
6.14

>  <document_chembl_id>  (508) 
CHEMBL3585316

$$$$

     RDKit          2D

 23 24  0  0  0  0  0  0  0  0999 V2000
    3.7500    1.2990    0.0000 O   0  0  0  0  0  0  0  0  0  0  0  0
    3.0000    0.0000    0.0000 C   0  0  0  0  0  0  0  0  0  0  0  0
    3.7500   -1.2990    0.0000 N   0  0  0  0  0  0  0  0  0  0  0  0
    5.2500   -1.2990    0.0000 O   0  0  0  0  0  0  0  0  0  0  0  0
    1.5000    0.0000    0.0000 C   0  0  0  0  0  0  0  0  0  0  0  0
    0.7500   -1.2990    0.0000 C   0  0  0  0  0  0  0  0  0  0  0  0
   -0.7500   -1.2990    0.0000 N   0  0  0  0  0  0  0  0  0  0  0  0
   -1.5000    0.0000    0.0000 C   0  0  0  0  0  0  0  0  0  0  0  0
   -3.0000    0.0000    0.0000 N   0  0  0  0  0  0  0  0  0  0  0  0
   -3.7500    1.2990    0.0000 C   0  0  0  0  0  0  0  0  0  0  0  0
   -5.2500    1.2990    0.0000 C   0  0  0  0  0  0  0  0  0  0  0  0
   -6.0000    2.5981    0.0000 C   0  0  0  0  0  0  0  0  0  0  0  0
   -7.5000    2.5981    0.0000 C   0  0  0  0  0  0  0  0  0  0  0  0
   -8.2500    1.2990    0.0000 C   0  0  0  0  0  0  0  0  0  0  0  0
   -9.7500    1.2990    0.0000 F   0  0  0  0  0  0  0  0  0  0  0  0
   -7.5000    0.0000    0.0000 C   0  0  0  0  0  0  0  0  0  0  0  0
   -6.0000    0.0000    0.0000 C   0  0  0  0  0  0  0  0  0  0  0  0
   -5.2500   -1.2990    0.0000 C   0  0  0  0  0  0  0  0  0  0  0  0
   -4.5000   -2.5981    0.0000 F   0  0  0  0  0  0  0  0  0  0  0  0
   -6.5490   -2.0490    0.0000 F   0  0  0  0  0  0  0  0  0  0  0  0
   -3.9510   -0.5490    0.0000 F   0  0  0  0  0  0  0  0  0  0  0  0
   -0.7500    1.2990    0.0000 N   0  0  0  0  0  0  0  0  0  0  0  0
    0.7500    1.2990    0.0000 C   0  0  0  0  0  0  0  0  0  0  0  0
  1  2  2  0
  2  3  1  0
  3  4  1  0
  2  5  1  0
  5  6  2  0
  6  7  1  0
  7  8  2  0
  8  9  1  0
  9 10  1  0
 10 11  1  0
 11 12  2  0
 12 13  1  0
 13 14  2  0
 14 15  1  0
 14 16  1  0
 16 17  2  0
 17 18  1  0
 18 19  1  0
 18 20  1  0
 18 21  1  0
  8 22  1  0
 22 23  2  0
 23  5  1  0
 17 11  1  0
M  END
>  <molecule_chembl_id>  (509) 
CHEMBL3655939

>  <canonical_smiles>  (509) 
O=C(NO)c1cnc(NCc2ccc(F)cc2C(F)(F)F)nc1

>  <pchembl_value_mean>  (509) 
6.15

>  <document_chembl_id>  (509) 
CHEMBL3639071

$$$$

     RDKit          2D

 41 45  0  0  0  0  0  0  0  0999 V2000
   -4.3786   -5.1199    0.0000 C   0  0  0  0  0  0  0  0  0  0  0  0
   -2.9520   -4.6564    0.0000 C   0  0  0  0  0  0  0  0  0  0  0  0
   -2.6401   -3.1891    0.0000 C   0  0  0  0  0  0  0  0  0  0  0  0
   -1.2135   -2.7256    0.0000 C   0  0  0  0  0  0  0  0  0  0  0  0
   -0.0000   -3.6073    0.0000 N   0  0  0  0  0  0  0  0  0  0  0  0
    1.2135   -2.7256    0.0000 N   0  0  0  0  0  0  0  0  0  0  0  0
    2.6401   -3.1891    0.0000 C   0  0  0  0  0  0  0  0  0  0  0  0
    0.7500   -1.2990    0.0000 C   0  0  0  0  0  0  0  0  0  0  0  0
    1.5000    0.0000    0.0000 C   0  0  0  0  0  0  0  0  0  0  0  0
    3.0000    0.0000    0.0000 O   0  0  0  0  0  0  0  0  0  0  0  0
    0.7500    1.2990    0.0000 N   0  0  0  0  0  0  0  0  0  0  0  0
   -0.7500    1.2990    0.0000 C   0  0  0  0  0  0  0  0  0  0  0  0
   -1.5000    2.5981    0.0000 C   0  0  0  0  0  0  0  0  0  0  0  0
   -0.7500    3.8971    0.0000 C   0  0  0  0  0  0  0  0  0  0  0  0
   -1.5000    5.1962    0.0000 C   0  0  0  0  0  0  0  0  0  0  0  0
   -0.7500    6.4952    0.0000 N   0  0  0  0  0  0  0  0  0  0  0  0
    0.7500    6.4952    0.0000 C   0  0  0  0  0  0  0  0  0  0  0  0
    1.5000    7.7942    0.0000 C   0  0  0  0  0  0  0  0  0  0  0  0
    3.0000    7.7942    0.0000 C   0  0  0  0  0  0  0  0  0  0  0  0
    3.7500    9.0933    0.0000 C   0  0  0  0  0  0  0  0  0  0  0  0
    3.0000   10.3923    0.0000 N   0  0  0  0  0  0  0  0  0  0  0  0
    3.7500   11.6913    0.0000 C   0  0  0  0  0  0  0  0  0  0  0  0
    5.2500   11.6913    0.0000 N   0  0  0  0  0  0  0  0  0  0  0  0
    6.0000   12.9904    0.0000 C   0  0  0  0  0  0  0  0  0  0  0  0
    5.2500   14.2894    0.0000 C   0  0  0  0  0  0  0  0  0  0  0  0
    6.0000   15.5885    0.0000 C   0  0  0  0  0  0  0  0  0  0  0  0
    5.2500   16.8875    0.0000 O   0  0  0  0  0  0  0  0  0  0  0  0
    7.5000   15.5885    0.0000 N   0  0  0  0  0  0  0  0  0  0  0  0
    8.2500   16.8875    0.0000 O   0  0  0  0  0  0  0  0  0  0  0  0
    3.7500   14.2894    0.0000 C   0  0  0  0  0  0  0  0  0  0  0  0
    3.0000   12.9904    0.0000 N   0  0  0  0  0  0  0  0  0  0  0  0
    1.5000   10.3923    0.0000 C   0  0  0  0  0  0  0  0  0  0  0  0
    0.7500    9.0933    0.0000 C   0  0  0  0  0  0  0  0  0  0  0  0
   -3.0000    5.1962    0.0000 C   0  0  0  0  0  0  0  0  0  0  0  0
   -3.7500    3.8971    0.0000 C   0  0  0  0  0  0  0  0  0  0  0  0
   -3.0000    2.5981    0.0000 C   0  0  0  0  0  0  0  0  0  0  0  0
   -3.7500    1.2990    0.0000 O   0  0  0  0  0  0  0  0  0  0  0  0
   -5.2500    1.2990    0.0000 C   0  0  0  0  0  0  0  0  0  0  0  0
   -6.0000    0.0000    0.0000 C   0  0  0  0  0  0  0  0  0  0  0  0
   -1.5000    0.0000    0.0000 N   0  0  0  0  0  0  0  0  0  0  0  0
   -0.7500   -1.2990    0.0000 C   0  0  0  0  0  0  0  0  0  0  0  0
  1  2  1  0
  2  3  1  0
  3  4  1  0
  4  5  2  0
  5  6  1  0
  6  7  1  0
  6  8  1  0
  8  9  1  0
  9 10  2  0
  9 11  1  0
 11 12  1  0
 12 13  1  0
 13 14  2  0
 14 15  1  0
 15 16  1  0
 16 17  1  0
 17 18  1  0
 18 19  1  0
 19 20  1  0
 20 21  1  0
 21 22  1  0
 22 23  2  0
 23 24  1  0
 24 25  2  0
 25 26  1  0
 26 27  2  0
 26 28  1  0
 28 29  1  0
 25 30  1  0
 30 31  2  0
 21 32  1  0
 32 33  1  0
 15 34  2  0
 34 35  1  0
 35 36  2  0
 36 37  1  0
 37 38  1  0
 38 39  1  0
 12 40  2  0
 40 41  1  0
 41  4  1  0
 41  8  2  0
 36 13  1  0
 33 18  1  0
 31 22  1  0
M  END
>  <molecule_chembl_id>  (510) 
CHEMBL3978271

>  <canonical_smiles>  (510) 
CCCc1nn(C)c2c(=O)[nH]c(-c3cc(NCC4CCN(c5ncc(C(=O)NO)cn5)CC4)ccc3OCC)nc12

>  <pchembl_value_mean>  (510) 
6.15

>  <document_chembl_id>  (510) 
CHEMBL3860059

$$$$

     RDKit          2D

 21 24  0  0  0  0  0  0  0  0999 V2000
   -0.7500   -9.0933    0.0000 O   0  0  0  0  0  0  0  0  0  0  0  0
   -1.5000   -7.7942    0.0000 C   0  0  0  0  0  0  0  0  0  0  0  0
   -3.0000   -7.7942    0.0000 N   0  0  0  0  0  0  0  0  0  0  0  0
   -3.7500   -9.0933    0.0000 O   0  0  0  0  0  0  0  0  0  0  0  0
   -0.7500   -6.4952    0.0000 C   0  0  0  0  0  0  0  0  0  0  0  0
   -1.5000   -5.1962    0.0000 C   0  0  0  0  0  0  0  0  0  0  0  0
   -0.7500   -3.8971    0.0000 N   0  0  0  0  0  0  0  0  0  0  0  0
    0.7500   -3.8971    0.0000 C   0  0  0  0  0  0  0  0  0  0  0  0
    1.5000   -2.5981    0.0000 N   0  0  0  0  0  0  0  0  0  0  0  0
    0.7500   -1.2990    0.0000 C   0  0  0  0  0  0  0  0  0  0  0  0
    1.5000    0.0000    0.0000 C   0  0  0  0  0  0  0  0  0  0  0  0
    0.7500    1.2990    0.0000 C   0  0  0  0  0  0  0  0  0  0  0  0
   -0.7500    1.2990    0.0000 C   0  0  0  0  0  0  0  0  0  0  0  0
   -1.5000    0.0000    0.0000 C   0  0  0  0  0  0  0  0  0  0  0  0
    1.7010   -0.7500    0.0000 C   0  0  0  0  0  0  0  0  0  0  0  0
    3.0000   -0.0000    0.0000 C   0  0  0  0  0  0  0  0  0  0  0  0
    2.2500    1.2990    0.0000 C   0  0  0  0  0  0  0  0  0  0  0  0
    2.2500   -1.2990    0.0000 C   0  0  0  0  0  0  0  0  0  0  0  0
   -0.7500   -1.2990    0.0000 C   0  0  0  0  0  0  0  0  0  0  0  0
    1.5000   -5.1962    0.0000 N   0  0  0  0  0  0  0  0  0  0  0  0
    0.7500   -6.4952    0.0000 C   0  0  0  0  0  0  0  0  0  0  0  0
  1  2  2  0
  2  3  1  0
  3  4  1  0
  2  5  1  0
  5  6  2  0
  6  7  1  0
  7  8  2  0
  8  9  1  0
  9 10  1  0
 10 11  1  0
 11 12  1  0
 12 13  1  0
 13 14  1  0
 14 15  1  0
 15 16  1  0
 16 17  1  0
 16 18  1  0
 14 19  1  0
  8 20  1  0
 20 21  2  0
 21  5  1  0
 18 10  1  0
 19 10  1  0
 17 12  1  0
M  END
>  <molecule_chembl_id>  (511) 
CHEMBL3655940

>  <canonical_smiles>  (511) 
O=C(NO)c1cnc(NC23CC4CC(CC(C4)C2)C3)nc1

>  <pchembl_value_mean>  (511) 
6.15

>  <document_chembl_id>  (511) 
CHEMBL3639071

$$$$

     RDKit          2D

 23 24  0  0  0  0  0  0  0  0999 V2000
    3.7500    1.2990    0.0000 O   0  0  0  0  0  0  0  0  0  0  0  0
    3.0000    0.0000    0.0000 C   0  0  0  0  0  0  0  0  0  0  0  0
    3.7500   -1.2990    0.0000 N   0  0  0  0  0  0  0  0  0  0  0  0
    5.2500   -1.2990    0.0000 O   0  0  0  0  0  0  0  0  0  0  0  0
    1.5000    0.0000    0.0000 C   0  0  0  0  0  0  0  0  0  0  0  0
    0.7500   -1.2990    0.0000 C   0  0  0  0  0  0  0  0  0  0  0  0
   -0.7500   -1.2990    0.0000 N   0  0  0  0  0  0  0  0  0  0  0  0
   -1.5000    0.0000    0.0000 C   0  0  0  0  0  0  0  0  0  0  0  0
   -3.0000    0.0000    0.0000 N   0  0  0  0  0  0  0  0  0  0  0  0
   -3.7500    1.2990    0.0000 C   0  0  0  0  0  0  0  0  0  0  0  0
   -3.0000    2.5981    0.0000 C   0  0  0  0  0  0  0  0  0  0  0  0
   -3.7500    3.8971    0.0000 C   0  0  0  0  0  0  0  0  0  0  0  0
   -3.0000    5.1962    0.0000 Cl  0  0  0  0  0  0  0  0  0  0  0  0
   -5.2500    3.8971    0.0000 C   0  0  0  0  0  0  0  0  0  0  0  0
   -6.0000    2.5981    0.0000 C   0  0  0  0  0  0  0  0  0  0  0  0
   -7.5000    2.5981    0.0000 O   0  0  0  0  0  0  0  0  0  0  0  0
   -8.2500    3.8971    0.0000 C   0  0  0  0  0  0  0  0  0  0  0  0
   -9.0000    5.1962    0.0000 F   0  0  0  0  0  0  0  0  0  0  0  0
   -9.5490    3.1471    0.0000 F   0  0  0  0  0  0  0  0  0  0  0  0
   -6.9510    4.6471    0.0000 F   0  0  0  0  0  0  0  0  0  0  0  0
   -5.2500    1.2990    0.0000 C   0  0  0  0  0  0  0  0  0  0  0  0
   -0.7500    1.2990    0.0000 N   0  0  0  0  0  0  0  0  0  0  0  0
    0.7500    1.2990    0.0000 C   0  0  0  0  0  0  0  0  0  0  0  0
  1  2  2  0
  2  3  1  0
  3  4  1  0
  2  5  1  0
  5  6  2  0
  6  7  1  0
  7  8  2  0
  8  9  1  0
  9 10  1  0
 10 11  2  0
 11 12  1  0
 12 13  1  0
 12 14  2  0
 14 15  1  0
 15 16  1  0
 16 17  1  0
 17 18  1  0
 17 19  1  0
 17 20  1  0
 15 21  2  0
  8 22  1  0
 22 23  2  0
 23  5  1  0
 21 10  1  0
M  END
>  <molecule_chembl_id>  (512) 
CHEMBL3655910

>  <canonical_smiles>  (512) 
O=C(NO)c1cnc(Nc2cc(Cl)cc(OC(F)(F)F)c2)nc1

>  <pchembl_value_mean>  (512) 
6.16

>  <document_chembl_id>  (512) 
CHEMBL3639071

$$$$

     RDKit          2D

 30 33  0  0  0  0  0  0  0  0999 V2000
    3.0000    0.0000    0.0000 C   0  0  0  0  0  0  0  0  0  0  0  0
    1.5000    0.0000    0.0000 C   0  0  0  0  0  0  0  0  0  0  0  0
    0.7500   -1.2990    0.0000 C   0  0  0  0  0  0  0  0  0  0  0  0
   -0.7500   -1.2990    0.0000 C   0  0  0  0  0  0  0  0  0  0  0  0
   -1.5000    0.0000    0.0000 C   0  0  0  0  0  0  0  0  0  0  0  0
   -2.9672    0.3119    0.0000 N   0  0  0  0  0  0  0  0  0  0  0  0
   -3.1240    1.8037    0.0000 C   0  0  0  0  0  0  0  0  0  0  0  0
   -4.4231    2.5537    0.0000 C   0  0  0  0  0  0  0  0  0  0  0  0
   -5.7221    1.8037    0.0000 O   0  0  0  0  0  0  0  0  0  0  0  0
   -4.4231    4.0537    0.0000 N   0  0  0  0  0  0  0  0  0  0  0  0
   -5.7221    4.8037    0.0000 C   0  0  0  0  0  0  0  0  0  0  0  0
   -5.7221    6.3037    0.0000 C   0  0  0  0  0  0  0  0  0  0  0  0
   -4.4231    7.0537    0.0000 C   0  0  0  0  0  0  0  0  0  0  0  0
   -4.4231    8.5537    0.0000 C   0  0  0  0  0  0  0  0  0  0  0  0
   -5.7221    9.3037    0.0000 C   0  0  0  0  0  0  0  0  0  0  0  0
   -5.7221   10.8037    0.0000 C   0  0  0  0  0  0  0  0  0  0  0  0
   -7.0211   11.5537    0.0000 O   0  0  0  0  0  0  0  0  0  0  0  0
   -4.4231   11.5537    0.0000 N   0  0  0  0  0  0  0  0  0  0  0  0
   -4.4231   13.0537    0.0000 C   0  0  0  0  0  0  0  0  0  0  0  0
   -3.1240   13.8037    0.0000 C   0  0  0  0  0  0  0  0  0  0  0  0
   -3.1240   15.3037    0.0000 C   0  0  0  0  0  0  0  0  0  0  0  0
   -4.4231   16.0537    0.0000 C   0  0  0  0  0  0  0  0  0  0  0  0
   -5.7221   15.3037    0.0000 C   0  0  0  0  0  0  0  0  0  0  0  0
   -5.7221   13.8037    0.0000 C   0  0  0  0  0  0  0  0  0  0  0  0
   -7.0211   13.0537    0.0000 N   0  0  0  0  0  0  0  0  0  0  0  0
   -7.0211    8.5537    0.0000 C   0  0  0  0  0  0  0  0  0  0  0  0
   -7.0211    7.0537    0.0000 C   0  0  0  0  0  0  0  0  0  0  0  0
   -1.7537    2.4138    0.0000 C   0  0  0  0  0  0  0  0  0  0  0  0
   -0.7500    1.2990    0.0000 C   0  0  0  0  0  0  0  0  0  0  0  0
    0.7500    1.2990    0.0000 C   0  0  0  0  0  0  0  0  0  0  0  0
  1  2  1  0
  2  3  2  0
  3  4  1  0
  4  5  2  0
  5  6  1  0
  6  7  1  0
  7  8  1  0
  8  9  2  0
  8 10  1  0
 10 11  1  0
 11 12  1  0
 12 13  2  0
 13 14  1  0
 14 15  2  0
 15 16  1  0
 16 17  2  0
 16 18  1  0
 18 19  1  0
 19 20  2  0
 20 21  1  0
 21 22  2  0
 22 23  1  0
 23 24  2  0
 24 25  1  0
 15 26  1  0
 26 27  2  0
  7 28  2  0
 28 29  1  0
 29 30  2  0
 30  2  1  0
 29  5  1  0
 27 12  1  0
 24 19  1  0
M  END
>  <molecule_chembl_id>  (513) 
CHEMBL3673107

>  <canonical_smiles>  (513) 
Cc1ccc2[nH]c(C(=O)NCc3ccc(C(=O)Nc4ccccc4N)cc3)cc2c1

>  <pchembl_value_mean>  (513) 
6.16

>  <document_chembl_id>  (513) 
CHEMBL3638911

$$$$

     RDKit          2D

 31 34  0  0  0  0  0  0  0  0999 V2000
    3.0000   -5.1962    0.0000 C   0  0  0  0  0  0  0  0  0  0  0  0
    1.5000   -5.1962    0.0000 O   0  0  0  0  0  0  0  0  0  0  0  0
    0.7500   -3.8971    0.0000 C   0  0  0  0  0  0  0  0  0  0  0  0
    1.5000   -2.5981    0.0000 N   0  0  0  0  0  0  0  0  0  0  0  0
    0.7500   -1.2990    0.0000 C   0  0  0  0  0  0  0  0  0  0  0  0
    1.5000    0.0000    0.0000 C   0  0  0  0  0  0  0  0  0  0  0  0
    0.7500    1.2990    0.0000 C   0  0  0  0  0  0  0  0  0  0  0  0
   -0.7500    1.2990    0.0000 C   0  0  0  0  0  0  0  0  0  0  0  0
   -1.5000    0.0000    0.0000 C   0  0  0  0  0  0  0  0  0  0  0  0
   -0.7500   -1.2990    0.0000 C   0  0  0  0  0  0  0  0  0  0  0  0
   -1.5000   -2.5981    0.0000 C   0  0  0  0  0  0  0  0  0  0  0  0
   -0.7500   -3.8971    0.0000 C   0  0  0  0  0  0  0  0  0  0  0  0
   -1.5000   -5.1962    0.0000 C   0  0  0  0  0  0  0  0  0  0  0  0
   -0.8899   -6.5665    0.0000 C   0  0  0  0  0  0  0  0  0  0  0  0
   -2.0046   -7.5702    0.0000 N   0  0  0  0  0  0  0  0  0  0  0  0
   -3.3037   -6.8202    0.0000 C   0  0  0  0  0  0  0  0  0  0  0  0
   -4.6740   -7.4303    0.0000 C   0  0  0  0  0  0  0  0  0  0  0  0
   -4.8308   -8.9221    0.0000 N   0  0  0  0  0  0  0  0  0  0  0  0
   -5.8875   -6.5486    0.0000 C   0  0  0  0  0  0  0  0  0  0  0  0
   -7.2578   -7.1587    0.0000 C   0  0  0  0  0  0  0  0  0  0  0  0
   -8.4713   -6.2770    0.0000 C   0  0  0  0  0  0  0  0  0  0  0  0
   -9.8417   -6.8871    0.0000 C   0  0  0  0  0  0  0  0  0  0  0  0
  -11.0552   -6.0054    0.0000 C   0  0  0  0  0  0  0  0  0  0  0  0
  -12.4255   -6.6156    0.0000 C   0  0  0  0  0  0  0  0  0  0  0  0
  -12.5823   -8.1073    0.0000 O   0  0  0  0  0  0  0  0  0  0  0  0
  -13.6390   -5.7339    0.0000 C   0  0  0  0  0  0  0  0  0  0  0  0
  -15.0656   -6.1974    0.0000 C   0  0  0  0  0  0  0  0  0  0  0  0
  -15.9473   -4.9839    0.0000 C   0  0  0  0  0  0  0  0  0  0  0  0
  -15.0656   -3.7703    0.0000 N   0  0  0  0  0  0  0  0  0  0  0  0
  -13.6390   -4.2339    0.0000 N   0  0  0  0  0  0  0  0  0  0  0  0
   -2.9918   -5.3529    0.0000 N   0  0  0  0  0  0  0  0  0  0  0  0
  1  2  1  0
  2  3  1  0
  3  4  2  0
  4  5  1  0
  5  6  2  0
  6  7  1  0
  7  8  2  0
  8  9  1  0
  9 10  2  0
 10 11  1  0
 11 12  2  0
 12 13  1  0
 13 14  2  0
 14 15  1  0
 15 16  2  0
 16 17  1  0
 17 18  1  0
 17 19  1  0
 19 20  1  0
 20 21  1  0
 21 22  1  0
 22 23  1  0
 23 24  1  0
 24 25  2  0
 24 26  1  0
 26 27  1  0
 27 28  2  0
 28 29  1  0
 29 30  1  0
 16 31  1  0
 12  3  1  0
 31 13  1  0
 10  5  1  0
 30 26  2  0
M  END
>  <molecule_chembl_id>  (514) 
CHEMBL4644575

>  <canonical_smiles>  (514) 
COc1nc2ccccc2cc1-c1cnc(C(N)CCCCCC(=O)c2cc[nH]n2)[nH]1

>  <pchembl_value_mean>  (514) 
6.16

>  <document_chembl_id>  (514) 
CHEMBL4622967

$$$$

     RDKit          2D

 24 26  0  0  0  0  0  0  0  0999 V2000
   -0.7500  -11.6913    0.0000 O   0  0  0  0  0  0  0  0  0  0  0  0
    0.7500  -11.6913    0.0000 C   0  0  0  0  0  0  0  0  0  0  0  0
    1.5000  -10.3923    0.0000 C   0  0  0  0  0  0  0  0  0  0  0  0
    0.7500   -9.0933    0.0000 C   0  0  0  0  0  0  0  0  0  0  0  0
    1.5000   -7.7942    0.0000 C   0  0  0  0  0  0  0  0  0  0  0  0
    0.7500   -6.4952    0.0000 C   0  0  0  0  0  0  0  0  0  0  0  0
    1.5000   -5.1962    0.0000 C   0  0  0  0  0  0  0  0  0  0  0  0
    0.7500   -3.8971    0.0000 N   0  0  0  0  0  0  0  0  0  0  0  0
    1.5000   -2.5981    0.0000 C   0  0  0  0  0  0  0  0  0  0  0  0
    3.0000   -2.5981    0.0000 O   0  0  0  0  0  0  0  0  0  0  0  0
    0.7500   -1.2990    0.0000 C   0  0  0  0  0  0  0  0  0  0  0  0
    1.5000    0.0000    0.0000 C   0  0  0  0  0  0  0  0  0  0  0  0
    0.7500    1.2990    0.0000 C   0  0  0  0  0  0  0  0  0  0  0  0
   -0.7500    1.2990    0.0000 C   0  0  0  0  0  0  0  0  0  0  0  0
   -1.5000    0.0000    0.0000 C   0  0  0  0  0  0  0  0  0  0  0  0
   -3.0000   -0.0000    0.0000 C   0  0  0  0  0  0  0  0  0  0  0  0
   -3.7500   -1.2990    0.0000 C   0  0  0  0  0  0  0  0  0  0  0  0
   -3.0000   -2.5981    0.0000 C   0  0  0  0  0  0  0  0  0  0  0  0
   -1.5000   -2.5981    0.0000 C   0  0  0  0  0  0  0  0  0  0  0  0
   -0.7500   -1.2990    0.0000 C   0  0  0  0  0  0  0  0  0  0  0  0
   -0.7500   -3.8971    0.0000 C   0  0  0  0  0  0  0  0  0  0  0  0
   -1.5000   -5.1962    0.0000 O   0  0  0  0  0  0  0  0  0  0  0  0
    1.5000  -12.9904    0.0000 N   0  0  0  0  0  0  0  0  0  0  0  0
    0.7500  -14.2894    0.0000 O   0  0  0  0  0  0  0  0  0  0  0  0
  1  2  2  0
  2  3  1  0
  3  4  1  0
  4  5  1  0
  5  6  1  0
  6  7  1  0
  7  8  1  0
  8  9  1  0
  9 10  2  0
  9 11  1  0
 11 12  1  0
 12 13  2  0
 13 14  1  0
 14 15  2  0
 15 16  1  0
 16 17  2  0
 17 18  1  0
 18 19  2  0
 19 20  1  0
 19 21  1  0
 21 22  2  0
  2 23  1  0
 23 24  1  0
 21  8  1  0
 20 11  2  0
 20 15  1  0
M  END
>  <molecule_chembl_id>  (515) 
CHEMBL96051

>  <canonical_smiles>  (515) 
O=C(CCCCCN1C(=O)c2cccc3cccc(c23)C1=O)NO

>  <pchembl_value_mean>  (515) 
6.16

>  <document_chembl_id>  (515) 
CHEMBL1255383

$$$$

     RDKit          2D

 22 23  0  0  0  0  0  0  0  0999 V2000
    3.0000    0.0000    0.0000 C   0  0  0  0  0  0  0  0  0  0  0  0
    1.5000    0.0000    0.0000 C   0  0  0  0  0  0  0  0  0  0  0  0
    0.7500   -1.2990    0.0000 C   0  0  0  0  0  0  0  0  0  0  0  0
   -0.7500   -1.2990    0.0000 C   0  0  0  0  0  0  0  0  0  0  0  0
   -1.5000   -2.5981    0.0000 C   0  0  0  0  0  0  0  0  0  0  0  0
   -0.2010   -3.3481    0.0000 C   0  0  0  0  0  0  0  0  0  0  0  0
   -2.7990   -1.8481    0.0000 C   0  0  0  0  0  0  0  0  0  0  0  0
   -2.2500   -3.8971    0.0000 N   0  0  0  0  0  0  0  0  0  0  0  0
   -1.5000   -5.1962    0.0000 C   0  0  0  0  0  0  0  0  0  0  0  0
   -2.2500   -6.4952    0.0000 N   0  0  0  0  0  0  0  0  0  0  0  0
   -1.5000   -7.7942    0.0000 C   0  0  0  0  0  0  0  0  0  0  0  0
   -0.0000   -7.7942    0.0000 C   0  0  0  0  0  0  0  0  0  0  0  0
    0.7500   -9.0933    0.0000 C   0  0  0  0  0  0  0  0  0  0  0  0
    2.2500   -9.0933    0.0000 O   0  0  0  0  0  0  0  0  0  0  0  0
   -0.0000  -10.3923    0.0000 N   0  0  0  0  0  0  0  0  0  0  0  0
    0.7500  -11.6913    0.0000 O   0  0  0  0  0  0  0  0  0  0  0  0
    0.7500   -6.4952    0.0000 C   0  0  0  0  0  0  0  0  0  0  0  0
   -0.0000   -5.1962    0.0000 N   0  0  0  0  0  0  0  0  0  0  0  0
   -1.5000    0.0000    0.0000 C   0  0  0  0  0  0  0  0  0  0  0  0
   -0.7500    1.2990    0.0000 C   0  0  0  0  0  0  0  0  0  0  0  0
    0.7500    1.2990    0.0000 C   0  0  0  0  0  0  0  0  0  0  0  0
    1.5000    2.5981    0.0000 F   0  0  0  0  0  0  0  0  0  0  0  0
  1  2  1  0
  2  3  2  0
  3  4  1  0
  4  5  1  0
  5  6  1  0
  5  7  1  0
  5  8  1  0
  8  9  1  0
  9 10  2  0
 10 11  1  0
 11 12  2  0
 12 13  1  0
 13 14  2  0
 13 15  1  0
 15 16  1  0
 12 17  1  0
 17 18  2  0
  4 19  2  0
 19 20  1  0
 20 21  2  0
 21 22  1  0
 21  2  1  0
 18  9  1  0
M  END
>  <molecule_chembl_id>  (516) 
CHEMBL3655955

>  <canonical_smiles>  (516) 
Cc1cc(C(C)(C)Nc2ncc(C(=O)NO)cn2)ccc1F

>  <pchembl_value_mean>  (516) 
6.17

>  <document_chembl_id>  (516) 
CHEMBL3639071

$$$$

     RDKit          2D

 28 30  0  0  0  0  0  0  0  0999 V2000
    3.0000    0.0000    0.0000 C   0  0  0  0  0  0  0  0  0  0  0  0
    1.5000    0.0000    0.0000 C   0  0  0  0  0  0  0  0  0  0  0  0
    0.7500   -1.2990    0.0000 C   0  0  0  0  0  0  0  0  0  0  0  0
   -0.7500   -1.2990    0.0000 C   0  0  0  0  0  0  0  0  0  0  0  0
   -1.5000    0.0000    0.0000 C   0  0  0  0  0  0  0  0  0  0  0  0
   -3.0000    0.0000    0.0000 C   0  0  0  0  0  0  0  0  0  0  0  0
   -3.8817   -1.2135    0.0000 N   0  0  0  0  0  0  0  0  0  0  0  0
   -5.3083   -0.7500    0.0000 O   0  0  0  0  0  0  0  0  0  0  0  0
   -5.3083    0.7500    0.0000 C   0  0  0  0  0  0  0  0  0  0  0  0
   -6.5218    1.6317    0.0000 C   0  0  0  0  0  0  0  0  0  0  0  0
   -6.3650    3.1235    0.0000 C   0  0  0  0  0  0  0  0  0  0  0  0
   -7.5785    4.0051    0.0000 C   0  0  0  0  0  0  0  0  0  0  0  0
   -7.4217    5.4969    0.0000 C   0  0  0  0  0  0  0  0  0  0  0  0
   -8.6353    6.3786    0.0000 C   0  0  0  0  0  0  0  0  0  0  0  0
   -8.4785    7.8704    0.0000 C   0  0  0  0  0  0  0  0  0  0  0  0
   -9.6920    8.7521    0.0000 C   0  0  0  0  0  0  0  0  0  0  0  0
  -11.0623    8.1420    0.0000 O   0  0  0  0  0  0  0  0  0  0  0  0
   -9.5352   10.2438    0.0000 N   0  0  0  0  0  0  0  0  0  0  0  0
  -10.7487   11.1255    0.0000 C   0  0  0  0  0  0  0  0  0  0  0  0
  -10.5919   12.6173    0.0000 C   0  0  0  0  0  0  0  0  0  0  0  0
  -11.8055   13.4990    0.0000 C   0  0  0  0  0  0  0  0  0  0  0  0
  -13.1758   12.8889    0.0000 C   0  0  0  0  0  0  0  0  0  0  0  0
  -13.3326   11.3971    0.0000 C   0  0  0  0  0  0  0  0  0  0  0  0
  -12.1190   10.5154    0.0000 C   0  0  0  0  0  0  0  0  0  0  0  0
  -12.2758    9.0236    0.0000 N   0  0  0  0  0  0  0  0  0  0  0  0
   -3.8817    1.2135    0.0000 N   0  0  0  0  0  0  0  0  0  0  0  0
   -0.7500    1.2990    0.0000 C   0  0  0  0  0  0  0  0  0  0  0  0
    0.7500    1.2990    0.0000 C   0  0  0  0  0  0  0  0  0  0  0  0
  1  2  1  0
  2  3  2  0
  3  4  1  0
  4  5  2  0
  5  6  1  0
  6  7  2  0
  7  8  1  0
  8  9  1  0
  9 10  1  0
 10 11  1  0
 11 12  1  0
 12 13  1  0
 13 14  1  0
 14 15  1  0
 15 16  1  0
 16 17  2  0
 16 18  1  0
 18 19  1  0
 19 20  2  0
 20 21  1  0
 21 22  2  0
 22 23  1  0
 23 24  2  0
 24 25  1  0
  9 26  2  0
  5 27  1  0
 27 28  2  0
 28  2  1  0
 26  6  1  0
 24 19  1  0
M  END
>  <molecule_chembl_id>  (517) 
CHEMBL3585970

>  <canonical_smiles>  (517) 
Cc1ccc(-c2noc(CCCCCCC(=O)Nc3ccccc3N)n2)cc1

>  <pchembl_value_mean>  (517) 
6.17

>  <document_chembl_id>  (517) 
CHEMBL3585316

$$$$

     RDKit          2D

 31 33  0  0  0  0  0  0  0  0999 V2000
   12.7500   -3.8971    0.0000 O   0  0  0  0  0  0  0  0  0  0  0  0
   12.0000   -5.1962    0.0000 C   0  0  0  0  0  0  0  0  0  0  0  0
   10.5000   -5.1962    0.0000 C   0  0  0  0  0  0  0  0  0  0  0  0
    9.7500   -3.8971    0.0000 C   0  0  0  0  0  0  0  0  0  0  0  0
    8.2500   -3.8971    0.0000 C   0  0  0  0  0  0  0  0  0  0  0  0
    7.5000   -2.5981    0.0000 C   0  0  0  0  0  0  0  0  0  0  0  0
    6.0000   -2.5981    0.0000 C   0  0  0  0  0  0  0  0  0  0  0  0
    5.2500   -1.2990    0.0000 C   0  0  0  0  0  0  0  0  0  0  0  0
    3.7500   -1.2990    0.0000 C   0  0  0  0  0  0  0  0  0  0  0  0
    3.0000   -2.5981    0.0000 O   0  0  0  0  0  0  0  0  0  0  0  0
    3.0000    0.0000    0.0000 N   0  0  0  0  0  0  0  0  0  0  0  0
    1.5000    0.0000    0.0000 C   0  0  0  0  0  0  0  0  0  0  0  0
    0.7500   -1.2990    0.0000 C   0  0  0  0  0  0  0  0  0  0  0  0
   -0.7500   -1.2990    0.0000 C   0  0  0  0  0  0  0  0  0  0  0  0
   -1.5000    0.0000    0.0000 C   0  0  0  0  0  0  0  0  0  0  0  0
   -3.0000    0.0000    0.0000 C   0  0  0  0  0  0  0  0  0  0  0  0
   -3.8817   -1.2135    0.0000 C   0  0  0  0  0  0  0  0  0  0  0  0
   -5.3083   -0.7500    0.0000 N   0  0  0  0  0  0  0  0  0  0  0  0
   -6.5218   -1.6317    0.0000 C   0  0  0  0  0  0  0  0  0  0  0  0
   -7.8921   -1.0216    0.0000 C   0  0  0  0  0  0  0  0  0  0  0  0
   -8.0489    0.4702    0.0000 C   0  0  0  0  0  0  0  0  0  0  0  0
   -9.4192    1.0803    0.0000 C   0  0  0  0  0  0  0  0  0  0  0  0
  -10.6327    0.1986    0.0000 C   0  0  0  0  0  0  0  0  0  0  0  0
  -10.4760   -1.2931    0.0000 C   0  0  0  0  0  0  0  0  0  0  0  0
   -9.1056   -1.9033    0.0000 C   0  0  0  0  0  0  0  0  0  0  0  0
   -5.3083    0.7500    0.0000 N   0  0  0  0  0  0  0  0  0  0  0  0
   -3.8817    1.2135    0.0000 N   0  0  0  0  0  0  0  0  0  0  0  0
   -0.7500    1.2990    0.0000 C   0  0  0  0  0  0  0  0  0  0  0  0
    0.7500    1.2990    0.0000 C   0  0  0  0  0  0  0  0  0  0  0  0
   12.7500   -6.4952    0.0000 N   0  0  0  0  0  0  0  0  0  0  0  0
   14.2500   -6.4952    0.0000 O   0  0  0  0  0  0  0  0  0  0  0  0
  1  2  2  0
  2  3  1  0
  3  4  1  0
  4  5  1  0
  5  6  1  0
  6  7  1  0
  7  8  1  0
  8  9  1  0
  9 10  2  0
  9 11  1  0
 11 12  1  0
 12 13  2  0
 13 14  1  0
 14 15  2  0
 15 16  1  0
 16 17  2  0
 17 18  1  0
 18 19  1  0
 19 20  1  0
 20 21  2  0
 21 22  1  0
 22 23  2  0
 23 24  1  0
 24 25  2  0
 18 26  1  0
 26 27  2  0
 15 28  1  0
 28 29  2  0
  2 30  1  0
 30 31  1  0
 29 12  1  0
 27 16  1  0
 25 20  1  0
M  END
>  <molecule_chembl_id>  (518) 
CHEMBL487533

>  <canonical_smiles>  (518) 
O=C(CCCCCCC(=O)Nc1ccc(-c2cn(Cc3ccccc3)nn2)cc1)NO

>  <pchembl_value_mean>  (518) 
6.17

>  <document_chembl_id>  (518) 
CHEMBL1150413

$$$$

     RDKit          2D

 36 41  0  0  0  0  0  0  0  0999 V2000
    3.7500   -3.8971    0.0000 N   0  0  0  0  0  0  0  0  0  0  0  0
    3.0000   -5.1962    0.0000 C   0  0  0  0  0  0  0  0  0  0  0  0
    3.7500   -6.4952    0.0000 C   0  0  0  0  0  0  0  0  0  0  0  0
    3.0000   -7.7942    0.0000 C   0  0  0  0  0  0  0  0  0  0  0  0
    1.5000   -7.7942    0.0000 C   0  0  0  0  0  0  0  0  0  0  0  0
    0.7500   -9.0933    0.0000 C   0  0  0  0  0  0  0  0  0  0  0  0
   -0.7500   -9.0933    0.0000 C   0  0  0  0  0  0  0  0  0  0  0  0
   -1.5000  -10.3923    0.0000 C   0  0  0  0  0  0  0  0  0  0  0  0
   -0.7500  -11.6913    0.0000 C   0  0  0  0  0  0  0  0  0  0  0  0
    0.7500  -11.6913    0.0000 C   0  0  0  0  0  0  0  0  0  0  0  0
    1.5000  -10.3923    0.0000 C   0  0  0  0  0  0  0  0  0  0  0  0
    0.7500   -6.4952    0.0000 C   0  0  0  0  0  0  0  0  0  0  0  0
    1.5000   -5.1962    0.0000 C   0  0  0  0  0  0  0  0  0  0  0  0
    0.7500   -3.8971    0.0000 N   0  0  0  0  0  0  0  0  0  0  0  0
    1.5000   -2.5981    0.0000 C   0  0  0  0  0  0  0  0  0  0  0  0
    3.0000   -2.5981    0.0000 O   0  0  0  0  0  0  0  0  0  0  0  0
    0.7500   -1.2990    0.0000 C   0  0  0  0  0  0  0  0  0  0  0  0
    1.5000    0.0000    0.0000 C   0  0  0  0  0  0  0  0  0  0  0  0
    0.7500    1.2990    0.0000 C   0  0  0  0  0  0  0  0  0  0  0  0
   -0.7500    1.2990    0.0000 C   0  0  0  0  0  0  0  0  0  0  0  0
   -1.5000    0.0000    0.0000 C   0  0  0  0  0  0  0  0  0  0  0  0
   -0.7500   -1.2990    0.0000 C   0  0  0  0  0  0  0  0  0  0  0  0
   -2.9672    0.3119    0.0000 C   0  0  0  0  0  0  0  0  0  0  0  0
   -4.0819   -0.6918    0.0000 C   0  0  0  0  0  0  0  0  0  0  0  0
   -4.5455   -2.1184    0.0000 C   0  0  0  0  0  0  0  0  0  0  0  0
   -5.5492   -1.0037    0.0000 C   0  0  0  0  0  0  0  0  0  0  0  0
   -3.1240    1.8037    0.0000 C   0  0  0  0  0  0  0  0  0  0  0  0
   -1.7537    2.4138    0.0000 N   0  0  0  0  0  0  0  0  0  0  0  0
   -1.4418    3.8810    0.0000 C   0  0  0  0  0  0  0  0  0  0  0  0
   -2.5565    4.8847    0.0000 C   0  0  0  0  0  0  0  0  0  0  0  0
   -2.2447    6.3519    0.0000 N   0  0  0  0  0  0  0  0  0  0  0  0
   -0.8181    6.8154    0.0000 C   0  0  0  0  0  0  0  0  0  0  0  0
   -0.5062    8.2826    0.0000 C   0  0  0  0  0  0  0  0  0  0  0  0
   -1.6209    9.2863    0.0000 O   0  0  0  0  0  0  0  0  0  0  0  0
   -3.0475    8.8228    0.0000 C   0  0  0  0  0  0  0  0  0  0  0  0
   -3.3594    7.3556    0.0000 C   0  0  0  0  0  0  0  0  0  0  0  0
  1  2  1  0
  2  3  2  0
  3  4  1  0
  4  5  2  0
  5  6  1  0
  6  7  2  0
  7  8  1  0
  8  9  2  0
  9 10  1  0
 10 11  2  0
  5 12  1  0
 12 13  2  0
 13 14  1  0
 14 15  1  0
 15 16  2  0
 15 17  1  0
 17 18  2  0
 18 19  1  0
 19 20  2  0
 20 21  1  0
 21 22  2  0
 21 23  1  0
 23 24  1  0
 24 25  1  0
 25 26  1  0
 23 27  2  0
 27 28  1  0
 28 29  1  0
 29 30  1  0
 30 31  1  0
 31 32  1  0
 32 33  1  0
 33 34  1  0
 34 35  1  0
 35 36  1  0
 13  2  1  0
 22 17  1  0
 26 24  1  0
 36 31  1  0
 11  6  1  0
 28 20  1  0
M  END
>  <molecule_chembl_id>  (519) 
CHEMBL3896998

>  <canonical_smiles>  (519) 
Nc1ccc(-c2ccccc2)cc1NC(=O)c1ccc2c(c1)c(C1CC1)cn2CCN1CCOCC1

>  <pchembl_value_mean>  (519) 
6.17

>  <document_chembl_id>  (519) 
CHEMBL3886267

$$$$

     RDKit          2D

 37 39  0  0  0  0  0  0  0  0999 V2000
   -0.5434  -12.0691    0.0000 C   0  0  0  0  0  0  0  0  0  0  0  0
   -0.2316  -10.6019    0.0000 C   0  0  0  0  0  0  0  0  0  0  0  0
   -1.3463   -9.5982    0.0000 C   0  0  0  0  0  0  0  0  0  0  0  0
   -1.0344   -8.1310    0.0000 C   0  0  0  0  0  0  0  0  0  0  0  0
    0.3922   -7.6675    0.0000 C   0  0  0  0  0  0  0  0  0  0  0  0
    1.5069   -8.6712    0.0000 C   0  0  0  0  0  0  0  0  0  0  0  0
    2.9335   -8.2076    0.0000 C   0  0  0  0  0  0  0  0  0  0  0  0
   -2.1491   -7.1273    0.0000 C   0  0  0  0  0  0  0  0  0  0  0  0
   -3.5757   -7.5908    0.0000 O   0  0  0  0  0  0  0  0  0  0  0  0
   -1.8373   -5.6601    0.0000 N   0  0  0  0  0  0  0  0  0  0  0  0
   -2.9520   -4.6564    0.0000 C   0  0  0  0  0  0  0  0  0  0  0  0
   -4.3786   -5.1199    0.0000 C   0  0  0  0  0  0  0  0  0  0  0  0
   -4.6904   -6.5871    0.0000 O   0  0  0  0  0  0  0  0  0  0  0  0
   -6.1170   -7.0506    0.0000 C   0  0  0  0  0  0  0  0  0  0  0  0
   -7.2317   -6.0469    0.0000 C   0  0  0  0  0  0  0  0  0  0  0  0
   -8.6583   -6.5105    0.0000 C   0  0  0  0  0  0  0  0  0  0  0  0
   -8.9702   -7.9777    0.0000 C   0  0  0  0  0  0  0  0  0  0  0  0
  -10.3968   -8.4412    0.0000 C   0  0  0  0  0  0  0  0  0  0  0  0
  -11.5115   -7.4375    0.0000 C   0  0  0  0  0  0  0  0  0  0  0  0
  -12.9381   -7.9010    0.0000 C   0  0  0  0  0  0  0  0  0  0  0  0
  -13.2499   -9.3683    0.0000 O   0  0  0  0  0  0  0  0  0  0  0  0
  -14.0528   -6.8974    0.0000 N   0  0  0  0  0  0  0  0  0  0  0  0
  -15.4794   -7.3609    0.0000 O   0  0  0  0  0  0  0  0  0  0  0  0
   -7.8555   -8.9814    0.0000 C   0  0  0  0  0  0  0  0  0  0  0  0
   -6.4289   -8.5179    0.0000 C   0  0  0  0  0  0  0  0  0  0  0  0
   -5.3142   -9.5216    0.0000 O   0  0  0  0  0  0  0  0  0  0  0  0
   -5.6260  -10.9888    0.0000 C   0  0  0  0  0  0  0  0  0  0  0  0
   -2.6401   -3.1891    0.0000 C   0  0  0  0  0  0  0  0  0  0  0  0
   -1.2135   -2.7256    0.0000 C   0  0  0  0  0  0  0  0  0  0  0  0
   -0.0000   -3.6073    0.0000 C   0  0  0  0  0  0  0  0  0  0  0  0
    1.2135   -2.7256    0.0000 N   0  0  0  0  0  0  0  0  0  0  0  0
    0.7500   -1.2990    0.0000 C   0  0  0  0  0  0  0  0  0  0  0  0
    1.5000    0.0000    0.0000 C   0  0  0  0  0  0  0  0  0  0  0  0
    0.7500    1.2990    0.0000 C   0  0  0  0  0  0  0  0  0  0  0  0
   -0.7500    1.2990    0.0000 C   0  0  0  0  0  0  0  0  0  0  0  0
   -1.5000    0.0000    0.0000 C   0  0  0  0  0  0  0  0  0  0  0  0
   -0.7500   -1.2990    0.0000 C   0  0  0  0  0  0  0  0  0  0  0  0
  1  2  1  0
  2  3  1  0
  3  4  1  0
  4  5  1  0
  5  6  1  0
  6  7  1  0
  4  8  1  0
  8  9  2  0
  8 10  1  0
 10 11  1  0
 11 12  1  0
 12 13  1  0
 13 14  1  0
 14 15  2  0
 15 16  1  0
 16 17  2  0
 17 18  1  0
 18 19  2  3
 19 20  1  0
 20 21  2  0
 20 22  1  0
 22 23  1  0
 17 24  1  0
 24 25  2  0
 25 26  1  0
 26 27  1  0
 11 28  1  0
 28 29  1  0
 29 30  2  0
 30 31  1  0
 31 32  1  0
 32 33  2  0
 33 34  1  0
 34 35  2  0
 35 36  1  0
 36 37  2  0
 25 14  1  0
 37 29  1  0
 37 32  1  0
M  END
>  <molecule_chembl_id>  (520) 
CHEMBL2336043

>  <canonical_smiles>  (520) 
CCCC(CCC)C(=O)NC(COc1ccc(C=CC(=O)NO)cc1OC)Cc1c[nH]c2ccccc12

>  <pchembl_value_mean>  (520) 
6.17

>  <document_chembl_id>  (520) 
CHEMBL2331319

$$$$

     RDKit          2D

 43 45  0  0  0  0  0  0  0  0999 V2000
    3.0000    0.0000    0.0000 C   0  0  0  0  0  0  0  0  0  0  0  0
    1.5000    0.0000    0.0000 C   0  0  0  0  0  0  0  0  0  0  0  0
    0.7500   -1.2990    0.0000 C   0  0  0  0  0  0  0  0  0  0  0  0
   -0.7500   -1.2990    0.0000 C   0  0  0  0  0  0  0  0  0  0  0  0
   -1.5000   -2.5981    0.0000 C   0  0  0  0  0  0  0  0  0  0  0  0
   -3.0000   -2.5981    0.0000 C   0  0  0  0  0  0  0  0  0  0  0  0
   -3.7500   -1.2990    0.0000 C   0  0  0  0  0  0  0  0  0  0  0  0
   -5.2500   -1.2990    0.0000 C   0  0  0  0  0  0  0  0  0  0  0  0
   -3.0000    0.0000    0.0000 C   0  0  0  0  0  0  0  0  0  0  0  0
   -3.7500    1.2990    0.0000 C   0  0  0  0  0  0  0  0  0  0  0  0
   -3.0000    2.5981    0.0000 C   0  0  0  0  0  0  0  0  0  0  0  0
   -3.7500    3.8971    0.0000 C   0  0  0  0  0  0  0  0  0  0  0  0
   -3.0000    5.1962    0.0000 C   0  0  0  0  0  0  0  0  0  0  0  0
   -3.7500    6.4952    0.0000 C   0  0  0  0  0  0  0  0  0  0  0  0
   -3.0000    7.7942    0.0000 O   0  0  0  0  0  0  0  0  0  0  0  0
   -3.7500    9.0933    0.0000 Si  0  0  0  0  0  4  0  0  0  0  0  0
   -2.4510    9.8433    0.0000 C   0  0  0  0  0  0  0  0  0  0  0  0
   -5.0490    8.3433    0.0000 C   0  0  0  0  0  0  0  0  0  0  0  0
   -4.5000   10.3923    0.0000 C   0  0  0  0  0  0  0  0  0  0  0  0
   -5.7990    9.6423    0.0000 C   0  0  0  0  0  0  0  0  0  0  0  0
   -3.2010   11.1423    0.0000 C   0  0  0  0  0  0  0  0  0  0  0  0
   -5.2500   11.6913    0.0000 C   0  0  0  0  0  0  0  0  0  0  0  0
   -5.2500    6.4952    0.0000 C   0  0  0  0  0  0  0  0  0  0  0  0
   -6.0000    5.1962    0.0000 C   0  0  0  0  0  0  0  0  0  0  0  0
   -7.5000    5.1962    0.0000 O   0  0  0  0  0  0  0  0  0  0  0  0
   -5.2500    3.8971    0.0000 O   0  0  0  0  0  0  0  0  0  0  0  0
   -1.5000    0.0000    0.0000 C   0  0  0  0  0  0  0  0  0  0  0  0
   -0.7500    1.2990    0.0000 C   0  0  0  0  0  0  0  0  0  0  0  0
   -1.5000    2.5981    0.0000 O   0  0  0  0  0  0  0  0  0  0  0  0
   -0.7500    3.8971    0.0000 C   0  0  0  0  0  0  0  0  0  0  0  0
    0.7500    3.8971    0.0000 O   0  0  0  0  0  0  0  0  0  0  0  0
   -1.5000    5.1962    0.0000 N   0  0  0  0  0  0  0  0  0  0  0  0
   -0.7500    6.4952    0.0000 C   0  0  0  0  0  0  0  0  0  0  0  0
   -1.5000    7.7942    0.0000 C   0  0  0  0  0  0  0  0  0  0  0  0
   -0.7500    9.0933    0.0000 C   0  0  0  0  0  0  0  0  0  0  0  0
   -1.5000   10.3923    0.0000 C   0  0  0  0  0  0  0  0  0  0  0  0
   -0.7500   11.6913    0.0000 C   0  0  0  0  0  0  0  0  0  0  0  0
   -1.5000   12.9904    0.0000 C   0  0  0  0  0  0  0  0  0  0  0  0
   -0.7500   14.2894    0.0000 C   0  0  0  0  0  0  0  0  0  0  0  0
    0.7500   14.2894    0.0000 O   0  0  0  0  0  0  0  0  0  0  0  0
   -1.5000   15.5885    0.0000 N   0  0  0  0  0  0  0  0  0  0  0  0
   -0.7500   16.8875    0.0000 O   0  0  0  0  0  0  0  0  0  0  0  0
    0.7500    1.2990    0.0000 C   0  0  0  0  0  0  0  0  0  0  0  0
  1  2  1  0
  2  3  1  0
  3  4  2  0
  4  5  1  0
  5  6  2  0
  6  7  1  0
  7  8  1  0
  7  9  1  0
  9 10  1  0
 10 11  1  0
 11 12  1  0
 12 13  1  0
 13 14  1  0
 14 15  1  0
 15 16  1  0
 16 17  1  0
 16 18  1  0
 16 19  1  0
 19 20  1  0
 19 21  1  0
 19 22  1  0
 14 23  1  0
 23 24  1  0
 24 25  2  0
 24 26  1  0
  9 27  1  0
 27 28  1  0
 28 29  1  0
 29 30  1  0
 30 31  2  0
 30 32  1  0
 32 33  1  0
 33 34  1  0
 34 35  1  0
 35 36  1  0
 36 37  1  0
 37 38  1  0
 38 39  1  0
 39 40  2  0
 39 41  1  0
 41 42  1  0
 28 43  1  0
 43  2  1  0
 27  4  1  0
 26 12  1  0
M  END
>  <molecule_chembl_id>  (521) 
CHEMBL2347005

>  <canonical_smiles>  (521) 
CC1C=C2C=CC(C)C(CCC3CC(O[Si](C)(C)C(C)(C)C)CC(=O)O3)C2C(OC(=O)NCCCCCCC(=O)NO)C1

>  <pchembl_value_mean>  (521) 
6.18

>  <document_chembl_id>  (521) 
CHEMBL2346500

$$$$

     RDKit          2D

 40 43  0  0  0  0  0  0  0  0999 V2000
    5.2500   -3.8971    0.0000 C   0  0  0  0  0  0  0  0  0  0  0  0
    3.7500   -3.8971    0.0000 C   0  0  0  0  0  0  0  0  0  0  0  0
    3.0000   -2.5981    0.0000 O   0  0  0  0  0  0  0  0  0  0  0  0
    1.5000   -2.5981    0.0000 C   0  0  0  0  0  0  0  0  0  0  0  0
    0.7500   -3.8971    0.0000 C   0  0  0  0  0  0  0  0  0  0  0  0
   -0.7500   -3.8971    0.0000 C   0  0  0  0  0  0  0  0  0  0  0  0
   -1.5000   -5.1962    0.0000 N   0  0  0  0  0  0  0  0  0  0  0  0
   -3.0000   -5.1962    0.0000 C   0  0  0  0  0  0  0  0  0  0  0  0
   -3.7500   -3.8971    0.0000 O   0  0  0  0  0  0  0  0  0  0  0  0
   -3.7500   -6.4952    0.0000 C   0  0  0  0  0  0  0  0  0  0  0  0
   -5.2500   -6.4952    0.0000 C   0  0  0  0  0  0  0  0  0  0  0  0
   -6.0000   -7.7942    0.0000 C   0  0  0  0  0  0  0  0  0  0  0  0
   -7.5000   -7.7942    0.0000 C   0  0  0  0  0  0  0  0  0  0  0  0
   -8.2500   -9.0933    0.0000 C   0  0  0  0  0  0  0  0  0  0  0  0
   -9.7500   -9.0933    0.0000 C   0  0  0  0  0  0  0  0  0  0  0  0
  -10.5000   -7.7942    0.0000 O   0  0  0  0  0  0  0  0  0  0  0  0
  -10.5000  -10.3923    0.0000 N   0  0  0  0  0  0  0  0  0  0  0  0
  -12.0000  -10.3923    0.0000 C   0  0  0  0  0  0  0  0  0  0  0  0
  -12.7500   -9.0933    0.0000 C   0  0  0  0  0  0  0  0  0  0  0  0
  -14.2500   -9.0933    0.0000 C   0  0  0  0  0  0  0  0  0  0  0  0
  -15.0000   -7.7942    0.0000 C   0  0  0  0  0  0  0  0  0  0  0  0
  -14.2500   -6.4952    0.0000 C   0  0  0  0  0  0  0  0  0  0  0  0
  -15.0000   -5.1962    0.0000 C   0  0  0  0  0  0  0  0  0  0  0  0
  -16.5000   -5.1962    0.0000 C   0  0  0  0  0  0  0  0  0  0  0  0
  -17.2500   -6.4952    0.0000 C   0  0  0  0  0  0  0  0  0  0  0  0
  -16.5000   -7.7942    0.0000 C   0  0  0  0  0  0  0  0  0  0  0  0
  -15.0000  -10.3923    0.0000 C   0  0  0  0  0  0  0  0  0  0  0  0
  -14.2500  -11.6913    0.0000 C   0  0  0  0  0  0  0  0  0  0  0  0
  -12.7500  -11.6913    0.0000 C   0  0  0  0  0  0  0  0  0  0  0  0
  -12.0000  -12.9904    0.0000 N   0  0  0  0  0  0  0  0  0  0  0  0
   -1.5000   -2.5981    0.0000 C   0  0  0  0  0  0  0  0  0  0  0  0
   -0.7500   -1.2990    0.0000 C   0  0  0  0  0  0  0  0  0  0  0  0
    0.7500   -1.2990    0.0000 C   0  0  0  0  0  0  0  0  0  0  0  0
    1.5000    0.0000    0.0000 O   0  0  0  0  0  0  0  0  0  0  0  0
    0.7500    1.2990    0.0000 C   0  0  0  0  0  0  0  0  0  0  0  0
   -0.7500    1.2990    0.0000 C   0  0  0  0  0  0  0  0  0  0  0  0
   -1.5000    2.5981    0.0000 N   0  0  0  0  0  4  0  0  0  0  0  0
   -3.0000    2.5981    0.0000 O   0  0  0  0  0  0  0  0  0  0  0  0
   -0.7500    3.8971    0.0000 O   0  0  0  0  0  1  0  0  0  0  0  0
   -1.5000    0.0000    0.0000 C   0  0  0  0  0  0  0  0  0  0  0  0
  1  2  1  0
  2  3  1  0
  3  4  1  0
  4  5  2  0
  5  6  1  0
  6  7  1  0
  7  8  1  0
  8  9  2  0
  8 10  1  0
 10 11  1  0
 11 12  1  0
 12 13  1  0
 13 14  1  0
 14 15  1  0
 15 16  2  0
 15 17  1  0
 17 18  1  0
 18 19  2  0
 19 20  1  0
 20 21  1  0
 21 22  2  0
 22 23  1  0
 23 24  2  0
 24 25  1  0
 25 26  2  0
 20 27  2  0
 27 28  1  0
 28 29  2  0
 29 30  1  0
  6 31  2  0
 31 32  1  0
 32 33  2  0
 33 34  1  0
 34 35  1  0
 35 36  1  0
 36 37  1  0
 37 38  2  0
 37 39  1  0
 36 40  2  0
 33  4  1  0
 29 18  1  0
 40 32  1  0
 26 21  1  0
M  CHG  2  37   1  39  -1
M  END
>  <molecule_chembl_id>  (522) 
CHEMBL4060953

>  <canonical_smiles>  (522) 
CCOc1cc(NC(=O)CCCCCC(=O)Nc2cc(-c3ccccc3)ccc2N)cc2c1OCC([N+](=O)[O-])=C2

>  <pchembl_value_mean>  (522) 
6.18

>  <document_chembl_id>  (522) 
CHEMBL4052685

$$$$

     RDKit          2D

 34 38  0  0  0  0  0  0  0  0999 V2000
    1.5000  -10.3923    0.0000 C   0  0  0  0  0  0  0  0  0  0  0  0
    0.7500   -9.0933    0.0000 O   0  0  0  0  0  0  0  0  0  0  0  0
    1.5000   -7.7942    0.0000 C   0  0  0  0  0  0  0  0  0  0  0  0
    0.7500   -6.4952    0.0000 C   0  0  0  0  0  0  0  0  0  0  0  0
    1.5000   -5.1962    0.0000 N   0  0  0  0  0  0  0  0  0  0  0  0
    3.0000   -5.1962    0.0000 C   0  0  0  0  0  0  0  0  0  0  0  0
    0.7500   -3.8971    0.0000 C   0  0  0  0  0  0  0  0  0  0  0  0
    1.5000   -2.5981    0.0000 C   0  0  0  0  0  0  0  0  0  0  0  0
    0.7500   -1.2990    0.0000 C   0  0  0  0  0  0  0  0  0  0  0  0
    1.5000    0.0000    0.0000 N   0  0  0  0  0  0  0  0  0  0  0  0
    0.7500    1.2990    0.0000 C   0  0  0  0  0  0  0  0  0  0  0  0
   -0.7500    1.2990    0.0000 C   0  0  0  0  0  0  0  0  0  0  0  0
   -1.5000    2.5981    0.0000 C   0  0  0  0  0  0  0  0  0  0  0  0
   -3.0000    2.5981    0.0000 O   0  0  0  0  0  0  0  0  0  0  0  0
   -0.7500    3.8971    0.0000 N   0  0  0  0  0  0  0  0  0  0  0  0
   -1.5000    5.1962    0.0000 C   0  0  0  0  0  0  0  0  0  0  0  0
   -0.7500    6.4952    0.0000 C   0  0  0  0  0  0  0  0  0  0  0  0
   -1.5000    7.7942    0.0000 C   0  0  0  0  0  0  0  0  0  0  0  0
   -0.7500    9.0933    0.0000 C   0  0  0  0  0  0  0  0  0  0  0  0
   -1.3601   10.4636    0.0000 C   0  0  0  0  0  0  0  0  0  0  0  0
   -0.2454   11.4673    0.0000 C   0  0  0  0  0  0  0  0  0  0  0  0
    1.0537   10.7173    0.0000 C   0  0  0  0  0  0  0  0  0  0  0  0
    0.7418    9.2501    0.0000 S   0  0  0  0  0  0  0  0  0  0  0  0
   -3.0000    7.7942    0.0000 C   0  0  0  0  0  0  0  0  0  0  0  0
   -3.7500    6.4952    0.0000 C   0  0  0  0  0  0  0  0  0  0  0  0
   -3.0000    5.1962    0.0000 C   0  0  0  0  0  0  0  0  0  0  0  0
   -3.7500    3.8971    0.0000 N   0  0  0  0  0  0  0  0  0  0  0  0
   -1.5000    0.0000    0.0000 C   0  0  0  0  0  0  0  0  0  0  0  0
   -0.7500   -1.2990    0.0000 C   0  0  0  0  0  0  0  0  0  0  0  0
   -1.5000   -2.5981    0.0000 C   0  0  0  0  0  0  0  0  0  0  0  0
   -0.7500   -3.8971    0.0000 C   0  0  0  0  0  0  0  0  0  0  0  0
   -1.5000   -5.1962    0.0000 C   0  0  0  0  0  0  0  0  0  0  0  0
   -1.5000   -6.6962    0.0000 C   0  0  0  0  0  0  0  0  0  0  0  0
   -2.7990   -5.9462    0.0000 C   0  0  0  0  0  0  0  0  0  0  0  0
  1  2  1  0
  2  3  1  0
  3  4  1  0
  4  5  1  0
  5  6  1  0
  5  7  1  0
  7  8  2  0
  8  9  1  0
  9 10  2  0
 10 11  1  0
 11 12  2  0
 12 13  1  0
 13 14  2  0
 13 15  1  0
 15 16  1  0
 16 17  2  0
 17 18  1  0
 18 19  1  0
 19 20  2  0
 20 21  1  0
 21 22  2  0
 22 23  1  0
 18 24  2  0
 24 25  1  0
 25 26  2  0
 26 27  1  0
 12 28  1  0
 28 29  2  0
 29 30  1  0
 30 31  2  0
 31 32  1  0
 32 33  1  0
 33 34  1  0
 31  7  1  0
 34 32  1  0
 29  9  1  0
 26 16  1  0
 23 19  1  0
M  END
>  <molecule_chembl_id>  (523) 
CHEMBL3889717

>  <canonical_smiles>  (523) 
COCCN(C)c1cc2ncc(C(=O)Nc3cc(-c4cccs4)ccc3N)cc2cc1C1CC1

>  <pchembl_value_mean>  (523) 
6.18

>  <document_chembl_id>  (523) 
CHEMBL3886267

$$$$

     RDKit          2D

 38 42  0  0  0  0  0  0  0  0999 V2000
   -9.4612   -4.0396    0.0000 C   0  0  0  0  0  0  0  0  0  0  0  0
   -8.3464   -5.0433    0.0000 O   0  0  0  0  0  0  0  0  0  0  0  0
   -6.9199   -4.5797    0.0000 C   0  0  0  0  0  0  0  0  0  0  0  0
   -6.6080   -3.1125    0.0000 C   0  0  0  0  0  0  0  0  0  0  0  0
   -5.1814   -2.6490    0.0000 C   0  0  0  0  0  0  0  0  0  0  0  0
   -4.0667   -3.6527    0.0000 C   0  0  0  0  0  0  0  0  0  0  0  0
   -2.6401   -3.1891    0.0000 S   0  0  0  0  0  0  0  0  0  0  0  0
   -3.1036   -1.7626    0.0000 O   0  0  0  0  0  0  0  0  0  0  0  0
   -2.1766   -4.6157    0.0000 O   0  0  0  0  0  0  0  0  0  0  0  0
   -1.2135   -2.7256    0.0000 N   0  0  0  0  0  0  0  0  0  0  0  0
   -0.0000   -3.6073    0.0000 C   0  0  0  0  0  0  0  0  0  0  0  0
    1.2135   -2.7256    0.0000 C   0  0  0  0  0  0  0  0  0  0  0  0
    0.7500   -1.2990    0.0000 C   0  0  0  0  0  0  0  0  0  0  0  0
    1.5000    0.0000    0.0000 C   0  0  0  0  0  0  0  0  0  0  0  0
    0.7500    1.2990    0.0000 C   0  0  0  0  0  0  0  0  0  0  0  0
   -0.7500    1.2990    0.0000 C   0  0  0  0  0  0  0  0  0  0  0  0
   -1.5000    0.0000    0.0000 C   0  0  0  0  0  0  0  0  0  0  0  0
   -3.0000    0.0000    0.0000 N   0  0  0  0  0  0  0  0  0  0  0  0
   -3.7500    1.2990    0.0000 C   0  0  0  0  0  0  0  0  0  0  0  0
   -5.2500    1.2990    0.0000 C   0  0  0  0  0  0  0  0  0  0  0  0
   -6.0000    2.5981    0.0000 C   0  0  0  0  0  0  0  0  0  0  0  0
   -7.5000    2.5981    0.0000 C   0  0  0  0  0  0  0  0  0  0  0  0
   -8.2500    1.2990    0.0000 C   0  0  0  0  0  0  0  0  0  0  0  0
   -9.7500    1.2990    0.0000 C   0  0  0  0  0  0  0  0  0  0  0  0
  -10.5000    0.0000    0.0000 O   0  0  0  0  0  0  0  0  0  0  0  0
  -10.5000    2.5981    0.0000 N   0  0  0  0  0  0  0  0  0  0  0  0
  -12.0000    2.5981    0.0000 C   0  0  0  0  0  0  0  0  0  0  0  0
  -12.7500    3.8971    0.0000 C   0  0  0  0  0  0  0  0  0  0  0  0
  -14.2500    3.8971    0.0000 C   0  0  0  0  0  0  0  0  0  0  0  0
  -15.0000    2.5981    0.0000 C   0  0  0  0  0  0  0  0  0  0  0  0
  -14.2500    1.2990    0.0000 C   0  0  0  0  0  0  0  0  0  0  0  0
  -12.7500    1.2990    0.0000 C   0  0  0  0  0  0  0  0  0  0  0  0
  -12.0000    0.0000    0.0000 N   0  0  0  0  0  0  0  0  0  0  0  0
   -7.5000    0.0000    0.0000 C   0  0  0  0  0  0  0  0  0  0  0  0
   -6.0000    0.0000    0.0000 C   0  0  0  0  0  0  0  0  0  0  0  0
   -0.7500   -1.2990    0.0000 C   0  0  0  0  0  0  0  0  0  0  0  0
   -4.3786   -5.1199    0.0000 C   0  0  0  0  0  0  0  0  0  0  0  0
   -5.8051   -5.5834    0.0000 C   0  0  0  0  0  0  0  0  0  0  0  0
  1  2  1  0
  2  3  1  0
  3  4  2  0
  4  5  1  0
  5  6  2  0
  6  7  1  0
  7  8  2  0
  7  9  2  0
  7 10  1  0
 10 11  1  0
 11 12  1  0
 12 13  1  0
 13 14  2  0
 14 15  1  0
 15 16  2  0
 16 17  1  0
 17 18  1  0
 18 19  1  0
 19 20  1  0
 20 21  2  0
 21 22  1  0
 22 23  2  0
 23 24  1  0
 24 25  2  0
 24 26  1  0
 26 27  1  0
 27 28  2  0
 28 29  1  0
 29 30  2  0
 30 31  1  0
 31 32  2  0
 32 33  1  0
 23 34  1  0
 34 35  2  0
 17 36  2  0
  6 37  1  0
 37 38  2  0
 38  3  1  0
 36 10  1  0
 36 13  1  0
 35 20  1  0
 32 27  1  0
M  END
>  <molecule_chembl_id>  (524) 
CHEMBL4459443

>  <canonical_smiles>  (524) 
COc1ccc(S(=O)(=O)N2CCc3cccc(NCc4ccc(C(=O)Nc5ccccc5N)cc4)c32)cc1

>  <pchembl_value_mean>  (524) 
6.18

>  <document_chembl_id>  (524) 
CHEMBL4382249

$$$$

     RDKit          2D

 42 44  0  0  0  0  0  0  0  0999 V2000
   12.1154  -19.0085    0.0000 C   0  0  0  0  0  0  0  0  0  0  0  0
   11.0547  -17.9478    0.0000 C   0  0  0  0  0  0  0  0  0  0  0  0
   11.4429  -16.4989    0.0000 C   0  0  0  0  0  0  0  0  0  0  0  0
   10.3823  -15.4383    0.0000 C   0  0  0  0  0  0  0  0  0  0  0  0
   10.7705  -13.9894    0.0000 C   0  0  0  0  0  0  0  0  0  0  0  0
    9.7098  -12.9287    0.0000 C   0  0  0  0  0  0  0  0  0  0  0  0
   10.0981  -11.4798    0.0000 C   0  0  0  0  0  0  0  0  0  0  0  0
    9.0374  -10.4192    0.0000 C   0  0  0  0  0  0  0  0  0  0  0  0
    7.5885  -10.8074    0.0000 O   0  0  0  0  0  0  0  0  0  0  0  0
    9.4256   -8.9703    0.0000 S   0  0  0  0  0  0  0  0  0  0  0  0
    8.3650   -7.9096    0.0000 C   0  0  0  0  0  0  0  0  0  0  0  0
    8.7532   -6.4607    0.0000 C   0  0  0  0  0  0  0  0  0  0  0  0
    7.6926   -5.4001    0.0000 C   0  0  0  0  0  0  0  0  0  0  0  0
    8.0808   -3.9512    0.0000 C   0  0  0  0  0  0  0  0  0  0  0  0
    7.0201   -2.8905    0.0000 C   0  0  0  0  0  0  0  0  0  0  0  0
    5.7729   -3.7239    0.0000 C   0  0  0  0  0  0  0  0  0  0  0  0
    4.3017   -4.0165    0.0000 C   0  0  0  0  0  0  0  0  0  0  0  0
    4.3017   -5.5165    0.0000 O   0  0  0  0  0  0  0  0  0  0  0  0
    2.8306   -3.7239    0.0000 N   0  0  0  0  0  0  0  0  0  0  0  0
    1.5834   -2.8905    0.0000 C   0  0  0  0  0  0  0  0  0  0  0  0
    0.7500   -1.2990    0.0000 C   0  0  0  0  0  0  0  0  0  0  0  0
    1.5000    0.0000    0.0000 C   0  0  0  0  0  0  0  0  0  0  0  0
    0.7500    1.2990    0.0000 C   0  0  0  0  0  0  0  0  0  0  0  0
   -0.7500    1.2990    0.0000 C   0  0  0  0  0  0  0  0  0  0  0  0
   -1.5000    0.0000    0.0000 C   0  0  0  0  0  0  0  0  0  0  0  0
   -0.7500   -1.2990    0.0000 N   0  0  0  0  0  0  0  0  0  0  0  0
    1.5834    2.5462    0.0000 C   0  0  0  0  0  0  0  0  0  0  0  0
    2.8306    3.3796    0.0000 N   0  0  0  0  0  0  0  0  0  0  0  0
    4.3017    3.6722    0.0000 C   0  0  0  0  0  0  0  0  0  0  0  0
    4.3017    5.1722    0.0000 C   0  0  0  0  0  0  0  0  0  0  0  0
    3.3276    4.8128    0.0000 C   0  0  0  0  0  0  0  0  0  0  0  0
    1.9417    4.2388    0.0000 S   0  0  0  0  0  0  0  0  0  0  0  0
    5.7729    3.3796    0.0000 C   0  0  0  0  0  0  0  0  0  0  0  0
    6.3469    4.7654    0.0000 O   0  0  0  0  0  0  0  0  0  0  0  0
    7.0201    2.5462    0.0000 N   0  0  0  0  0  0  0  0  0  0  0  0
    7.8535    1.2990    0.0000 C   0  0  0  0  0  0  0  0  0  0  0  0
    9.2393    1.8731    0.0000 C   0  0  0  0  0  0  0  0  0  0  0  0
   10.4293    0.9599    0.0000 C   0  0  0  0  0  0  0  0  0  0  0  0
    9.4351    3.3602    0.0000 C   0  0  0  0  0  0  0  0  0  0  0  0
    8.1461   -0.1721    0.0000 C   0  0  0  0  0  0  0  0  0  0  0  0
    9.6461   -0.1721    0.0000 O   0  0  0  0  0  0  0  0  0  0  0  0
    7.8535   -1.6433    0.0000 O   0  0  0  0  0  0  0  0  0  0  0  0
  1  2  1  0
  2  3  1  0
  3  4  1  0
  4  5  1  0
  5  6  1  0
  6  7  1  0
  7  8  1  0
  8  9  2  0
  8 10  1  0
 10 11  1  0
 11 12  1  0
 12 13  1  0
 13 14  2  3
 14 15  1  0
 15 16  1  0
 16 17  1  0
 17 18  2  0
 17 19  1  0
 19 20  1  0
 20 21  1  0
 21 22  1  0
 22 23  2  0
 23 24  1  0
 24 25  2  0
 25 26  1  0
 23 27  1  0
 27 28  2  0
 28 29  1  0
 29 30  1  0
 29 31  1  0
 31 32  1  0
 29 33  1  0
 33 34  2  0
 33 35  1  0
 35 36  1  0
 36 37  1  0
 37 38  1  0
 37 39  1  0
 36 40  1  0
 40 41  2  0
 40 42  1  0
 42 15  1  0
 26 21  2  0
 32 27  1  0
M  END
>  <molecule_chembl_id>  (525) 
CHEMBL3593410

>  <canonical_smiles>  (525) 
CCCCCCCC(=O)SCCC=CC1CC(=O)NCc2cc(ccn2)C2=NC(C)(CS2)C(=O)NC(C(C)C)C(=O)O1

>  <pchembl_value_mean>  (525) 
6.18

>  <document_chembl_id>  (525) 
CHEMBL3593208

$$$$

     RDKit          2D

 36 39  0  0  0  0  0  0  0  0999 V2000
    7.4832    8.6656    0.0000 C   0  0  0  0  0  0  0  0  0  0  0  0
    7.6400    7.1738    0.0000 C   0  0  0  0  0  0  0  0  0  0  0  0
    6.4265    6.2921    0.0000 O   0  0  0  0  0  0  0  0  0  0  0  0
    6.5833    4.8003    0.0000 C   0  0  0  0  0  0  0  0  0  0  0  0
    7.9536    4.1902    0.0000 N   0  0  0  0  0  0  0  0  0  0  0  0
    8.1104    2.6984    0.0000 C   0  0  0  0  0  0  0  0  0  0  0  0
    6.8969    1.8168    0.0000 C   0  0  0  0  0  0  0  0  0  0  0  0
    7.0537    0.3250    0.0000 C   0  0  0  0  0  0  0  0  0  0  0  0
    8.3527   -0.4250    0.0000 C   0  0  0  0  0  0  0  0  0  0  0  0
    8.0408   -1.8922    0.0000 N   0  0  0  0  0  0  0  0  0  0  0  0
    6.5490   -2.0490    0.0000 C   0  0  0  0  0  0  0  0  0  0  0  0
    5.7990   -3.3481    0.0000 C   0  0  0  0  0  0  0  0  0  0  0  0
    6.5490   -4.6471    0.0000 C   0  0  0  0  0  0  0  0  0  0  0  0
    8.0490   -4.6471    0.0000 C   0  0  0  0  0  0  0  0  0  0  0  0
    8.7990   -5.9462    0.0000 C   0  0  0  0  0  0  0  0  0  0  0  0
   10.2990   -5.9462    0.0000 C   0  0  0  0  0  0  0  0  0  0  0  0
   11.0490   -7.2452    0.0000 C   0  0  0  0  0  0  0  0  0  0  0  0
   12.5490   -7.2452    0.0000 C   0  0  0  0  0  0  0  0  0  0  0  0
   13.2990   -5.9462    0.0000 O   0  0  0  0  0  0  0  0  0  0  0  0
   13.2990   -8.5442    0.0000 C   0  0  0  0  0  0  0  0  0  0  0  0
   14.7990   -8.5442    0.0000 C   0  0  0  0  0  0  0  0  0  0  0  0
    4.2990   -3.3481    0.0000 N   0  0  0  0  0  0  0  0  0  0  0  0
    3.5490   -2.0490    0.0000 C   0  0  0  0  0  0  0  0  0  0  0  0
    4.2990   -0.7500    0.0000 O   0  0  0  0  0  0  0  0  0  0  0  0
    2.0490   -2.0490    0.0000 C   0  0  0  0  0  0  0  0  0  0  0  0
    0.7500   -2.7990    0.0000 C   0  0  0  0  0  0  0  0  0  0  0  0
    0.7500   -1.2990    0.0000 C   0  0  0  0  0  0  0  0  0  0  0  0
    1.5000    0.0000    0.0000 C   0  0  0  0  0  0  0  0  0  0  0  0
    0.7500    1.2990    0.0000 C   0  0  0  0  0  0  0  0  0  0  0  0
   -0.7500    1.2990    0.0000 N   0  0  0  0  0  0  0  0  0  0  0  0
   -1.5000    2.5981    0.0000 C   0  0  0  0  0  0  0  0  0  0  0  0
   -1.5000    0.0000    0.0000 C   0  0  0  0  0  0  0  0  0  0  0  0
   -0.7500   -1.2990    0.0000 C   0  0  0  0  0  0  0  0  0  0  0  0
    5.9389   -0.6787    0.0000 N   0  0  0  0  0  0  0  0  0  0  0  0
    5.5265    2.4269    0.0000 C   0  0  0  0  0  0  0  0  0  0  0  0
    5.3697    3.9186    0.0000 N   0  0  0  0  0  0  0  0  0  0  0  0
  1  2  1  0
  2  3  1  0
  3  4  1  0
  4  5  2  0
  5  6  1  0
  6  7  2  0
  7  8  1  0
  8  9  2  0
  9 10  1  0
 10 11  2  0
 11 12  1  0
 12 13  1  0
 13 14  1  0
 14 15  1  0
 15 16  1  0
 16 17  1  0
 17 18  1  0
 18 19  2  0
 18 20  1  0
 20 21  1  0
 12 22  1  0
 22 23  1  0
 23 24  2  0
 23 25  1  0
 25 26  1  0
 26 27  1  0
 27 28  1  0
 28 29  1  0
 29 30  1  0
 30 31  1  0
 30 32  1  0
 32 33  1  0
 11 34  1  0
  7 35  1  0
 35 36  2  0
 36  4  1  0
 34  8  1  0
 27 25  1  0
 33 27  1  0
M  END
>  <molecule_chembl_id>  (526) 
CHEMBL4754717

>  <canonical_smiles>  (526) 
CCOc1ncc(-c2cnc(C(CCCCCC(=O)CC)NC(=O)C3CC34CCN(C)CC4)[nH]2)cn1

>  <pchembl_value_mean>  (526) 
6.18

>  <document_chembl_id>  (526) 
CHEMBL4680369

$$$$

     RDKit          2D

 33 36  0  0  0  0  0  0  0  0999 V2000
   -7.5000   -5.1962    0.0000 O   0  0  0  0  0  0  0  0  0  0  0  0
   -6.0000   -5.1962    0.0000 C   0  0  0  0  0  0  0  0  0  0  0  0
   -5.2500   -6.4952    0.0000 N   0  0  0  0  0  0  0  0  0  0  0  0
   -6.0000   -7.7942    0.0000 O   0  0  0  0  0  0  0  0  0  0  0  0
   -5.2500   -3.8971    0.0000 C   0  0  0  0  0  0  0  0  0  0  0  0
   -3.7500   -3.8971    0.0000 C   0  0  0  0  0  0  0  0  0  0  0  0
   -3.0000   -2.5981    0.0000 N   0  0  0  0  0  0  0  0  0  0  0  0
   -3.7500   -1.2990    0.0000 C   0  0  0  0  0  0  0  0  0  0  0  0
   -3.0000    0.0000    0.0000 N   0  0  0  0  0  0  0  0  0  0  0  0
   -3.7500    1.2990    0.0000 C   0  0  0  0  0  0  0  0  0  0  0  0
   -2.3405    1.8121    0.0000 C   0  0  0  0  0  0  0  0  0  0  0  0
   -1.1914    0.8479    0.0000 C   0  0  0  0  0  0  0  0  0  0  0  0
    0.2181    1.3609    0.0000 C   0  0  0  0  0  0  0  0  0  0  0  0
    0.4786    2.8381    0.0000 C   0  0  0  0  0  0  0  0  0  0  0  0
   -0.6704    3.8023    0.0000 C   0  0  0  0  0  0  0  0  0  0  0  0
   -2.0800    3.2893    0.0000 C   0  0  0  0  0  0  0  0  0  0  0  0
   -4.8991    0.3349    0.0000 C   0  0  0  0  0  0  0  0  0  0  0  0
   -6.3086    0.8479    0.0000 C   0  0  0  0  0  0  0  0  0  0  0  0
   -6.5691    2.3251    0.0000 N   0  0  0  0  0  0  0  0  0  0  0  0
   -7.9786    2.8381    0.0000 S   0  0  0  0  0  0  0  0  0  0  0  0
   -8.4916    1.4286    0.0000 O   0  0  0  0  0  0  0  0  0  0  0  0
   -7.4656    4.2477    0.0000 O   0  0  0  0  0  0  0  0  0  0  0  0
   -9.3882    3.3512    0.0000 C   0  0  0  0  0  0  0  0  0  0  0  0
   -9.6486    4.8284    0.0000 C   0  0  0  0  0  0  0  0  0  0  0  0
  -11.0582    5.3414    0.0000 C   0  0  0  0  0  0  0  0  0  0  0  0
  -12.2072    4.3772    0.0000 C   0  0  0  0  0  0  0  0  0  0  0  0
  -11.9468    2.9000    0.0000 C   0  0  0  0  0  0  0  0  0  0  0  0
  -13.0958    1.9358    0.0000 F   0  0  0  0  0  0  0  0  0  0  0  0
  -10.5372    2.3870    0.0000 C   0  0  0  0  0  0  0  0  0  0  0  0
   -5.4200    3.2893    0.0000 C   0  0  0  0  0  0  0  0  0  0  0  0
   -4.0105    2.7762    0.0000 C   0  0  0  0  0  0  0  0  0  0  0  0
   -5.2500   -1.2990    0.0000 N   0  0  0  0  0  0  0  0  0  0  0  0
   -6.0000   -2.5981    0.0000 C   0  0  0  0  0  0  0  0  0  0  0  0
  1  2  2  0
  2  3  1  0
  3  4  1  0
  2  5  1  0
  5  6  2  0
  6  7  1  0
  7  8  2  0
  8  9  1  0
  9 10  1  0
 10 11  1  0
 11 12  2  0
 12 13  1  0
 13 14  2  0
 14 15  1  0
 15 16  2  0
 10 17  1  0
 17 18  1  0
 18 19  1  0
 19 20  1  0
 20 21  2  0
 20 22  2  0
 20 23  1  0
 23 24  2  0
 24 25  1  0
 25 26  2  0
 26 27  1  0
 27 28  1  0
 27 29  2  0
 19 30  1  0
 30 31  1  0
  8 32  1  0
 32 33  2  0
 33  5  1  0
 31 10  1  0
 16 11  1  0
 29 23  1  0
M  END
>  <molecule_chembl_id>  (527) 
CHEMBL3925038

>  <canonical_smiles>  (527) 
O=C(NO)c1cnc(NC2(c3ccccc3)CCN(S(=O)(=O)c3cccc(F)c3)CC2)nc1

>  <pchembl_value_mean>  (527) 
6.19

>  <document_chembl_id>  (527) 
CHEMBL3886590

$$$$

     RDKit          2D

 33 36  0  0  0  0  0  0  0  0999 V2000
    3.0000    0.0000    0.0000 C   0  0  0  0  0  0  0  0  0  0  0  0
    1.5000    0.0000    0.0000 C   0  0  0  0  0  0  0  0  0  0  0  0
    0.7500   -1.2990    0.0000 C   0  0  0  0  0  0  0  0  0  0  0  0
   -0.7500   -1.2990    0.0000 C   0  0  0  0  0  0  0  0  0  0  0  0
   -1.5000    0.0000    0.0000 C   0  0  0  0  0  0  0  0  0  0  0  0
   -3.0000    0.0000    0.0000 S   0  0  0  0  0  0  0  0  0  0  0  0
   -3.0000    1.5000    0.0000 O   0  0  0  0  0  0  0  0  0  0  0  0
   -3.0000   -1.5000    0.0000 O   0  0  0  0  0  0  0  0  0  0  0  0
   -4.5000    0.0000    0.0000 N   0  0  0  0  0  0  0  0  0  0  0  0
   -5.2500    1.2990    0.0000 C   0  0  0  0  0  0  0  0  0  0  0  0
   -6.7500    1.2990    0.0000 C   0  0  0  0  0  0  0  0  0  0  0  0
   -7.5000    0.0000    0.0000 C   0  0  0  0  0  0  0  0  0  0  0  0
   -8.6491    0.9642    0.0000 N   0  0  0  0  0  0  0  0  0  0  0  0
   -8.3886    2.4414    0.0000 C   0  0  0  0  0  0  0  0  0  0  0  0
   -6.9791    2.9544    0.0000 N   0  0  0  0  0  0  0  0  0  0  0  0
   -6.7186    4.4316    0.0000 C   0  0  0  0  0  0  0  0  0  0  0  0
   -7.8676    5.3958    0.0000 C   0  0  0  0  0  0  0  0  0  0  0  0
   -7.6072    6.8730    0.0000 C   0  0  0  0  0  0  0  0  0  0  0  0
   -8.7562    7.8372    0.0000 O   0  0  0  0  0  0  0  0  0  0  0  0
   -6.1976    7.3861    0.0000 N   0  0  0  0  0  0  0  0  0  0  0  0
   -5.9372    8.8633    0.0000 O   0  0  0  0  0  0  0  0  0  0  0  0
   -9.2772    4.8828    0.0000 C   0  0  0  0  0  0  0  0  0  0  0  0
   -9.5377    3.4056    0.0000 N   0  0  0  0  0  0  0  0  0  0  0  0
   -8.6491   -0.9642    0.0000 C   0  0  0  0  0  0  0  0  0  0  0  0
  -10.0586   -0.4512    0.0000 C   0  0  0  0  0  0  0  0  0  0  0  0
  -11.2077   -1.4153    0.0000 C   0  0  0  0  0  0  0  0  0  0  0  0
  -10.9472   -2.8925    0.0000 C   0  0  0  0  0  0  0  0  0  0  0  0
   -9.5377   -3.4056    0.0000 C   0  0  0  0  0  0  0  0  0  0  0  0
   -8.3886   -2.4414    0.0000 C   0  0  0  0  0  0  0  0  0  0  0  0
   -6.7500   -1.2990    0.0000 C   0  0  0  0  0  0  0  0  0  0  0  0
   -5.2500   -1.2990    0.0000 C   0  0  0  0  0  0  0  0  0  0  0  0
   -0.7500    1.2990    0.0000 C   0  0  0  0  0  0  0  0  0  0  0  0
    0.7500    1.2990    0.0000 C   0  0  0  0  0  0  0  0  0  0  0  0
  1  2  1  0
  2  3  2  0
  3  4  1  0
  4  5  2  0
  5  6  1  0
  6  7  2  0
  6  8  2  0
  6  9  1  0
  9 10  1  0
 10 11  1  0
 11 12  1  0
 12 13  1  0
 13 14  1  0
 14 15  2  0
 15 16  1  0
 16 17  2  0
 17 18  1  0
 18 19  2  0
 18 20  1  0
 20 21  1  0
 17 22  1  0
 22 23  2  0
 12 24  1  0
 24 25  2  0
 25 26  1  0
 26 27  2  0
 27 28  1  0
 28 29  2  0
 12 30  1  0
 30 31  1  0
  5 32  1  0
 32 33  2  0
 33  2  1  0
 31  9  1  0
 23 14  1  0
 29 24  1  0
M  END
>  <molecule_chembl_id>  (528) 
CHEMBL3938587

>  <canonical_smiles>  (528) 
Cc1ccc(S(=O)(=O)N2CCC(Nc3ncc(C(=O)NO)cn3)(c3ccccc3)CC2)cc1

>  <pchembl_value_mean>  (528) 
6.19

>  <document_chembl_id>  (528) 
CHEMBL3886590

$$$$

     RDKit          2D

 39 43  0  0  0  0  0  0  0  0999 V2000
    3.0000    0.0000    0.0000 C   0  0  0  0  0  0  0  0  0  0  0  0
    1.5000    0.0000    0.0000 C   0  0  0  0  0  0  0  0  0  0  0  0
    0.7500   -1.2990    0.0000 C   0  0  0  0  0  0  0  0  0  0  0  0
   -0.7500   -1.2990    0.0000 N   0  0  0  0  0  0  0  0  0  0  0  0
   -1.5000   -2.5981    0.0000 C   0  0  0  0  0  0  0  0  0  0  0  0
   -3.0000   -2.5981    0.0000 C   0  0  0  0  0  0  0  0  0  0  0  0
   -3.7500   -3.8971    0.0000 C   0  0  0  0  0  0  0  0  0  0  0  0
   -3.0000   -5.1962    0.0000 C   0  0  0  0  0  0  0  0  0  0  0  0
   -3.7500   -6.4952    0.0000 C   0  0  0  0  0  0  0  0  0  0  0  0
   -3.0000   -7.7942    0.0000 O   0  0  0  0  0  0  0  0  0  0  0  0
   -5.2500   -6.4952    0.0000 N   0  0  0  0  0  0  0  0  0  0  0  0
   -6.0000   -7.7942    0.0000 C   0  0  0  0  0  0  0  0  0  0  0  0
   -7.5000   -7.7942    0.0000 C   0  0  0  0  0  0  0  0  0  0  0  0
   -8.2500   -9.0933    0.0000 C   0  0  0  0  0  0  0  0  0  0  0  0
   -9.7500   -9.0933    0.0000 C   0  0  0  0  0  0  0  0  0  0  0  0
  -10.5000   -7.7942    0.0000 C   0  0  0  0  0  0  0  0  0  0  0  0
  -12.0000   -7.7942    0.0000 C   0  0  0  0  0  0  0  0  0  0  0  0
  -12.7500   -9.0933    0.0000 C   0  0  0  0  0  0  0  0  0  0  0  0
  -12.0000  -10.3923    0.0000 C   0  0  0  0  0  0  0  0  0  0  0  0
  -10.5000  -10.3923    0.0000 C   0  0  0  0  0  0  0  0  0  0  0  0
   -7.5000  -10.3923    0.0000 C   0  0  0  0  0  0  0  0  0  0  0  0
   -6.0000  -10.3923    0.0000 C   0  0  0  0  0  0  0  0  0  0  0  0
   -5.2500   -9.0933    0.0000 C   0  0  0  0  0  0  0  0  0  0  0  0
   -3.7500   -9.0933    0.0000 N   0  0  0  0  0  0  0  0  0  0  0  0
   -1.5000   -5.1962    0.0000 C   0  0  0  0  0  0  0  0  0  0  0  0
   -0.7500   -3.8971    0.0000 N   0  0  0  0  0  0  0  0  0  0  0  0
   -1.5000    0.0000    0.0000 C   0  0  0  0  0  0  0  0  0  0  0  0
   -0.7500    1.2990    0.0000 C   0  0  0  0  0  0  0  0  0  0  0  0
    0.7500    1.2990    0.0000 N   0  0  0  0  0  0  0  0  0  0  0  0
    1.5000    2.5981    0.0000 C   0  0  0  0  0  0  0  0  0  0  0  0
    3.0000    2.5981    0.0000 O   0  0  0  0  0  0  0  0  0  0  0  0
    0.7500    3.8971    0.0000 O   0  0  0  0  0  0  0  0  0  0  0  0
    1.5000    5.1962    0.0000 C   0  0  0  0  0  0  0  0  0  0  0  0
    0.7500    6.4952    0.0000 C   0  0  0  0  0  0  0  0  0  0  0  0
    1.5000    7.7942    0.0000 C   0  0  0  0  0  0  0  0  0  0  0  0
    0.7500    9.0933    0.0000 C   0  0  0  0  0  0  0  0  0  0  0  0
   -0.7500    9.0933    0.0000 C   0  0  0  0  0  0  0  0  0  0  0  0
   -1.5000    7.7942    0.0000 C   0  0  0  0  0  0  0  0  0  0  0  0
   -0.7500    6.4952    0.0000 C   0  0  0  0  0  0  0  0  0  0  0  0
  1  2  1  0
  2  3  1  0
  3  4  1  0
  4  5  1  0
  5  6  2  0
  6  7  1  0
  7  8  2  0
  8  9  1  0
  9 10  2  0
  9 11  1  0
 11 12  1  0
 12 13  2  0
 13 14  1  0
 14 15  1  0
 15 16  2  0
 16 17  1  0
 17 18  2  0
 18 19  1  0
 19 20  2  0
 14 21  2  0
 21 22  1  0
 22 23  2  0
 23 24  1  0
  8 25  1  0
 25 26  2  0
  4 27  1  0
 27 28  1  0
 28 29  1  0
 29 30  1  0
 30 31  2  0
 30 32  1  0
 32 33  1  0
 33 34  1  0
 34 35  2  0
 35 36  1  0
 36 37  2  0
 37 38  1  0
 38 39  2  0
 29  2  1  0
 39 34  1  0
 26  5  1  0
 23 12  1  0
 20 15  1  0
M  END
>  <molecule_chembl_id>  (529) 
CHEMBL437029

>  <canonical_smiles>  (529) 
CC1CN(c2ccc(C(=O)Nc3cc(-c4ccccc4)ccc3N)cn2)CCN1C(=O)OCc1ccccc1

>  <pchembl_value_mean>  (529) 
6.19

>  <document_chembl_id>  (529) 
CHEMBL1143185

$$$$

     RDKit          2D

 26 28  0  0  0  0  0  0  0  0999 V2000
   -1.5200  -13.6512    0.0000 O   0  0  0  0  0  0  0  0  0  0  0  0
   -2.7335  -12.7695    0.0000 C   0  0  0  0  0  0  0  0  0  0  0  0
   -4.1038  -13.3796    0.0000 O   0  0  0  0  0  0  0  0  0  0  0  0
   -2.5767  -11.2778    0.0000 C   0  0  0  0  0  0  0  0  0  0  0  0
   -1.2064  -10.6676    0.0000 C   0  0  0  0  0  0  0  0  0  0  0  0
   -1.0496   -9.1759    0.0000 C   0  0  0  0  0  0  0  0  0  0  0  0
    0.3207   -8.5658    0.0000 C   0  0  0  0  0  0  0  0  0  0  0  0
    0.4775   -7.0740    0.0000 C   0  0  0  0  0  0  0  0  0  0  0  0
    1.8478   -6.4639    0.0000 S   0  0  0  0  0  0  0  0  0  0  0  0
    2.0046   -4.9721    0.0000 C   0  0  0  0  0  0  0  0  0  0  0  0
    3.3037   -4.2221    0.0000 N   0  0  0  0  0  0  0  0  0  0  0  0
    2.9918   -2.7549    0.0000 N   0  0  0  0  0  0  0  0  0  0  0  0
    1.5000   -2.5981    0.0000 C   0  0  0  0  0  0  0  0  0  0  0  0
    0.7500   -1.2990    0.0000 C   0  0  0  0  0  0  0  0  0  0  0  0
    1.5000    0.0000    0.0000 C   0  0  0  0  0  0  0  0  0  0  0  0
    0.7500    1.2990    0.0000 C   0  0  0  0  0  0  0  0  0  0  0  0
   -0.7500    1.2990    0.0000 N   0  0  0  0  0  0  0  0  0  0  0  0
   -1.5000    0.0000    0.0000 C   0  0  0  0  0  0  0  0  0  0  0  0
   -0.7500   -1.2990    0.0000 C   0  0  0  0  0  0  0  0  0  0  0  0
    0.8899   -3.9684    0.0000 N   0  0  0  0  0  0  0  0  0  0  0  0
   -0.5773   -4.2803    0.0000 C   0  0  0  0  0  0  0  0  0  0  0  0
   -1.5810   -3.1655    0.0000 C   0  0  0  0  0  0  0  0  0  0  0  0
   -3.0482   -3.4774    0.0000 C   0  0  0  0  0  0  0  0  0  0  0  0
   -3.5118   -4.9040    0.0000 C   0  0  0  0  0  0  0  0  0  0  0  0
   -2.5081   -6.0187    0.0000 C   0  0  0  0  0  0  0  0  0  0  0  0
   -1.0409   -5.7068    0.0000 C   0  0  0  0  0  0  0  0  0  0  0  0
  1  2  2  0
  2  3  1  0
  2  4  1  0
  4  5  1  0
  5  6  1  0
  6  7  1  0
  7  8  1  0
  8  9  1  0
  9 10  1  0
 10 11  2  0
 11 12  1  0
 12 13  2  0
 13 14  1  0
 14 15  2  0
 15 16  1  0
 16 17  2  0
 17 18  1  0
 18 19  2  0
 13 20  1  0
 20 21  1  0
 21 22  2  0
 22 23  1  0
 23 24  2  0
 24 25  1  0
 25 26  2  0
 20 10  1  0
 26 21  1  0
 19 14  1  0
M  END
>  <molecule_chembl_id>  (530) 
CHEMBL4862173

>  <canonical_smiles>  (530) 
O=C(O)CCCCCSc1nnc(-c2ccncc2)n1-c1ccccc1

>  <pchembl_value_mean>  (530) 
6.19

>  <document_chembl_id>  (530) 
CHEMBL4823270

$$$$

     RDKit          2D

 28 30  0  0  0  0  0  0  0  0999 V2000
    3.0000    0.0000    0.0000 C   0  0  0  0  0  0  0  0  0  0  0  0
    1.5000    0.0000    0.0000 C   0  0  0  0  0  0  0  0  0  0  0  0
    0.7500   -1.2990    0.0000 C   0  0  0  0  0  0  0  0  0  0  0  0
   -0.7500   -1.2990    0.0000 C   0  0  0  0  0  0  0  0  0  0  0  0
   -1.5000    0.0000    0.0000 C   0  0  0  0  0  0  0  0  0  0  0  0
   -3.0000    0.0000    0.0000 C   0  0  0  0  0  0  0  0  0  0  0  0
   -3.8817   -1.2135    0.0000 C   0  0  0  0  0  0  0  0  0  0  0  0
   -5.3083   -0.7500    0.0000 C   0  0  0  0  0  0  0  0  0  0  0  0
   -6.5218   -1.6317    0.0000 C   0  0  0  0  0  0  0  0  0  0  0  0
   -7.7353   -2.5134    0.0000 F   0  0  0  0  0  0  0  0  0  0  0  0
   -7.4035   -0.4182    0.0000 F   0  0  0  0  0  0  0  0  0  0  0  0
   -5.6401   -2.8452    0.0000 F   0  0  0  0  0  0  0  0  0  0  0  0
   -5.3083    0.7500    0.0000 N   0  0  0  0  0  0  0  0  0  0  0  0
   -3.8817    1.2135    0.0000 N   0  0  0  0  0  0  0  0  0  0  0  0
   -3.4182    2.6401    0.0000 C   0  0  0  0  0  0  0  0  0  0  0  0
   -4.4218    3.7548    0.0000 C   0  0  0  0  0  0  0  0  0  0  0  0
   -3.9583    5.1814    0.0000 C   0  0  0  0  0  0  0  0  0  0  0  0
   -2.4911    5.4933    0.0000 C   0  0  0  0  0  0  0  0  0  0  0  0
   -2.0276    6.9199    0.0000 C   0  0  0  0  0  0  0  0  0  0  0  0
   -3.0313    8.0346    0.0000 C   0  0  0  0  0  0  0  0  0  0  0  0
   -2.5677    9.4612    0.0000 C   0  0  0  0  0  0  0  0  0  0  0  0
   -3.5714   10.5759    0.0000 O   0  0  0  0  0  0  0  0  0  0  0  0
   -1.1005    9.7730    0.0000 N   0  0  0  0  0  0  0  0  0  0  0  0
   -0.6370   11.1996    0.0000 O   0  0  0  0  0  0  0  0  0  0  0  0
   -4.4985    7.7227    0.0000 C   0  0  0  0  0  0  0  0  0  0  0  0
   -4.9620    6.2961    0.0000 C   0  0  0  0  0  0  0  0  0  0  0  0
   -0.7500    1.2990    0.0000 C   0  0  0  0  0  0  0  0  0  0  0  0
    0.7500    1.2990    0.0000 C   0  0  0  0  0  0  0  0  0  0  0  0
  1  2  1  0
  2  3  2  0
  3  4  1  0
  4  5  2  0
  5  6  1  0
  6  7  2  0
  7  8  1  0
  8  9  1  0
  9 10  1  0
  9 11  1  0
  9 12  1  0
  8 13  2  0
 13 14  1  0
 14 15  1  0
 15 16  1  0
 16 17  1  0
 17 18  2  0
 18 19  1  0
 19 20  2  0
 20 21  1  0
 21 22  2  0
 21 23  1  0
 23 24  1  0
 20 25  1  0
 25 26  2  0
  5 27  1  0
 27 28  2  0
 28  2  1  0
 14  6  1  0
 26 17  1  0
M  END
>  <molecule_chembl_id>  (531) 
CHEMBL4227717

>  <canonical_smiles>  (531) 
Cc1ccc(-c2cc(C(F)(F)F)nn2CCc2ccc(C(=O)NO)cc2)cc1

>  <pchembl_value_mean>  (531) 
6.2

>  <document_chembl_id>  (531) 
CHEMBL4219109

$$$$

     RDKit          2D

 24 25  0  0  0  0  0  0  0  0999 V2000
    3.7500    1.2990    0.0000 O   0  0  0  0  0  0  0  0  0  0  0  0
    3.0000    0.0000    0.0000 C   0  0  0  0  0  0  0  0  0  0  0  0
    3.7500   -1.2990    0.0000 N   0  0  0  0  0  0  0  0  0  0  0  0
    5.2500   -1.2990    0.0000 O   0  0  0  0  0  0  0  0  0  0  0  0
    1.5000    0.0000    0.0000 C   0  0  0  0  0  0  0  0  0  0  0  0
    0.7500   -1.2990    0.0000 C   0  0  0  0  0  0  0  0  0  0  0  0
   -0.7500   -1.2990    0.0000 N   0  0  0  0  0  0  0  0  0  0  0  0
   -1.5000    0.0000    0.0000 C   0  0  0  0  0  0  0  0  0  0  0  0
   -3.0000    0.0000    0.0000 N   0  0  0  0  0  0  0  0  0  0  0  0
   -3.7500    1.2990    0.0000 C   0  0  0  0  0  0  0  0  0  0  0  0
   -3.0000    2.5981    0.0000 C   0  0  0  0  0  0  0  0  0  0  0  0
   -3.7500    3.8971    0.0000 C   0  0  0  0  0  0  0  0  0  0  0  0
   -5.2500    3.8971    0.0000 C   0  0  0  0  0  0  0  0  0  0  0  0
   -6.0000    5.1962    0.0000 N   0  0  0  0  0  4  0  0  0  0  0  0
   -7.5000    5.1962    0.0000 O   0  0  0  0  0  0  0  0  0  0  0  0
   -5.2500    6.4952    0.0000 O   0  0  0  0  0  1  0  0  0  0  0  0
   -6.0000    2.5981    0.0000 C   0  0  0  0  0  0  0  0  0  0  0  0
   -7.5000    2.5981    0.0000 C   0  0  0  0  0  0  0  0  0  0  0  0
   -9.0000    2.5981    0.0000 F   0  0  0  0  0  0  0  0  0  0  0  0
   -7.5000    1.0981    0.0000 F   0  0  0  0  0  0  0  0  0  0  0  0
   -7.5000    4.0981    0.0000 F   0  0  0  0  0  0  0  0  0  0  0  0
   -5.2500    1.2990    0.0000 C   0  0  0  0  0  0  0  0  0  0  0  0
   -0.7500    1.2990    0.0000 N   0  0  0  0  0  0  0  0  0  0  0  0
    0.7500    1.2990    0.0000 C   0  0  0  0  0  0  0  0  0  0  0  0
  1  2  2  0
  2  3  1  0
  3  4  1  0
  2  5  1  0
  5  6  2  0
  6  7  1  0
  7  8  2  0
  8  9  1  0
  9 10  1  0
 10 11  2  0
 11 12  1  0
 12 13  2  0
 13 14  1  0
 14 15  2  0
 14 16  1  0
 13 17  1  0
 17 18  1  0
 18 19  1  0
 18 20  1  0
 18 21  1  0
 17 22  2  0
  8 23  1  0
 23 24  2  0
 24  5  1  0
 22 10  1  0
M  CHG  2  14   1  16  -1
M  END
>  <molecule_chembl_id>  (532) 
CHEMBL3652233

>  <canonical_smiles>  (532) 
O=C(NO)c1cnc(Nc2ccc([N+](=O)[O-])c(C(F)(F)F)c2)nc1

>  <pchembl_value_mean>  (532) 
6.2

>  <document_chembl_id>  (532) 
CHEMBL3639071

$$$$

     RDKit          2D

 23 25  0  0  0  0  0  0  0  0999 V2000
   -7.5000   -5.1962    0.0000 O   0  0  0  0  0  0  0  0  0  0  0  0
   -6.0000   -5.1962    0.0000 C   0  0  0  0  0  0  0  0  0  0  0  0
   -5.2500   -6.4952    0.0000 N   0  0  0  0  0  0  0  0  0  0  0  0
   -6.0000   -7.7942    0.0000 O   0  0  0  0  0  0  0  0  0  0  0  0
   -5.2500   -3.8971    0.0000 C   0  0  0  0  0  0  0  0  0  0  0  0
   -3.7500   -3.8971    0.0000 C   0  0  0  0  0  0  0  0  0  0  0  0
   -3.0000   -2.5981    0.0000 N   0  0  0  0  0  0  0  0  0  0  0  0
   -3.7500   -1.2990    0.0000 C   0  0  0  0  0  0  0  0  0  0  0  0
   -3.0000    0.0000    0.0000 N   0  0  0  0  0  0  0  0  0  0  0  0
   -3.7500    1.2990    0.0000 C   0  0  0  0  0  0  0  0  0  0  0  0
   -2.3797    1.9091    0.0000 C   0  0  0  0  0  0  0  0  0  0  0  0
   -1.1662    1.0275    0.0000 C   0  0  0  0  0  0  0  0  0  0  0  0
    0.2042    1.6376    0.0000 C   0  0  0  0  0  0  0  0  0  0  0  0
    0.3610    3.1294    0.0000 C   0  0  0  0  0  0  0  0  0  0  0  0
    1.7313    3.7395    0.0000 F   0  0  0  0  0  0  0  0  0  0  0  0
   -0.8526    4.0110    0.0000 C   0  0  0  0  0  0  0  0  0  0  0  0
   -2.2229    3.4009    0.0000 C   0  0  0  0  0  0  0  0  0  0  0  0
   -4.2135    2.7256    0.0000 C   0  0  0  0  0  0  0  0  0  0  0  0
   -5.7135    2.7256    0.0000 C   0  0  0  0  0  0  0  0  0  0  0  0
   -6.1771    1.2990    0.0000 C   0  0  0  0  0  0  0  0  0  0  0  0
   -4.9635    0.4174    0.0000 C   0  0  0  0  0  0  0  0  0  0  0  0
   -5.2500   -1.2990    0.0000 N   0  0  0  0  0  0  0  0  0  0  0  0
   -6.0000   -2.5981    0.0000 C   0  0  0  0  0  0  0  0  0  0  0  0
  1  2  2  0
  2  3  1  0
  3  4  1  0
  2  5  1  0
  5  6  2  0
  6  7  1  0
  7  8  2  0
  8  9  1  0
  9 10  1  0
 10 11  1  0
 11 12  2  0
 12 13  1  0
 13 14  2  0
 14 15  1  0
 14 16  1  0
 16 17  2  0
 10 18  1  0
 18 19  1  0
 19 20  1  0
 20 21  1  0
  8 22  1  0
 22 23  2  0
 23  5  1  0
 21 10  1  0
 17 11  1  0
M  END
>  <molecule_chembl_id>  (533) 
CHEMBL3656017

>  <canonical_smiles>  (533) 
O=C(NO)c1cnc(NC2(c3ccc(F)cc3)CCCC2)nc1

>  <pchembl_value_mean>  (533) 
6.21

>  <document_chembl_id>  (533) 
CHEMBL3639071

$$$$

     RDKit          2D

 38 42  0  0  0  0  0  0  0  0999 V2000
    3.7500   -1.2990    0.0000 C   0  0  0  0  0  0  0  0  0  0  0  0
    3.0000    0.0000    0.0000 O   0  0  0  0  0  0  0  0  0  0  0  0
    1.5000    0.0000    0.0000 C   0  0  0  0  0  0  0  0  0  0  0  0
    0.7500   -1.2990    0.0000 C   0  0  0  0  0  0  0  0  0  0  0  0
   -0.7500   -1.2990    0.0000 C   0  0  0  0  0  0  0  0  0  0  0  0
   -1.5000    0.0000    0.0000 C   0  0  0  0  0  0  0  0  0  0  0  0
   -3.0000    0.0000    0.0000 C   0  0  0  0  0  0  0  0  0  0  0  0
   -3.7500   -1.2990    0.0000 O   0  0  0  0  0  0  0  0  0  0  0  0
   -3.7500    1.2990    0.0000 N   0  0  0  0  0  0  0  0  0  0  0  0
   -5.2500    1.2990    0.0000 C   0  0  0  0  0  0  0  0  0  0  0  0
   -6.0000    2.5981    0.0000 C   0  0  0  0  0  0  0  0  0  0  0  0
   -7.5000    2.5981    0.0000 C   0  0  0  0  0  0  0  0  0  0  0  0
   -8.2500    1.2990    0.0000 C   0  0  0  0  0  0  0  0  0  0  0  0
   -7.5000    0.0000    0.0000 C   0  0  0  0  0  0  0  0  0  0  0  0
   -6.0000    0.0000    0.0000 C   0  0  0  0  0  0  0  0  0  0  0  0
   -5.2500   -1.2990    0.0000 Cl  0  0  0  0  0  0  0  0  0  0  0  0
   -3.0000    2.5981    0.0000 C   0  0  0  0  0  0  0  0  0  0  0  0
   -3.7500    3.8971    0.0000 S   0  0  0  0  0  0  0  0  0  0  0  0
   -3.0000    5.1962    0.0000 C   0  0  0  0  0  0  0  0  0  0  0  0
   -3.7500    6.4952    0.0000 C   0  0  0  0  0  0  0  0  0  0  0  0
   -3.0000    7.7942    0.0000 C   0  0  0  0  0  0  0  0  0  0  0  0
   -3.7500    9.0933    0.0000 C   0  0  0  0  0  0  0  0  0  0  0  0
   -5.2500    9.0933    0.0000 C   0  0  0  0  0  0  0  0  0  0  0  0
   -6.0000   10.3923    0.0000 C   0  0  0  0  0  0  0  0  0  0  0  0
   -7.5000   10.3923    0.0000 O   0  0  0  0  0  0  0  0  0  0  0  0
   -5.2500   11.6913    0.0000 N   0  0  0  0  0  0  0  0  0  0  0  0
   -6.0000   12.9904    0.0000 C   0  0  0  0  0  0  0  0  0  0  0  0
   -5.2500   14.2894    0.0000 C   0  0  0  0  0  0  0  0  0  0  0  0
   -6.0000   15.5885    0.0000 C   0  0  0  0  0  0  0  0  0  0  0  0
   -7.5000   15.5885    0.0000 C   0  0  0  0  0  0  0  0  0  0  0  0
   -8.2500   14.2894    0.0000 C   0  0  0  0  0  0  0  0  0  0  0  0
   -7.5000   12.9904    0.0000 C   0  0  0  0  0  0  0  0  0  0  0  0
   -8.2500   11.6913    0.0000 N   0  0  0  0  0  0  0  0  0  0  0  0
   -6.0000    7.7942    0.0000 C   0  0  0  0  0  0  0  0  0  0  0  0
   -5.2500    6.4952    0.0000 C   0  0  0  0  0  0  0  0  0  0  0  0
   -1.5000    2.5981    0.0000 N   0  0  0  0  0  0  0  0  0  0  0  0
   -0.7500    1.2990    0.0000 C   0  0  0  0  0  0  0  0  0  0  0  0
    0.7500    1.2990    0.0000 C   0  0  0  0  0  0  0  0  0  0  0  0
  1  2  1  0
  2  3  1  0
  3  4  2  0
  4  5  1  0
  5  6  2  0
  6  7  1  0
  7  8  2  0
  7  9  1  0
  9 10  1  0
 10 11  2  0
 11 12  1  0
 12 13  2  0
 13 14  1  0
 14 15  2  0
 15 16  1  0
  9 17  1  0
 17 18  1  0
 18 19  1  0
 19 20  1  0
 20 21  2  0
 21 22  1  0
 22 23  2  0
 23 24  1  0
 24 25  2  0
 24 26  1  0
 26 27  1  0
 27 28  2  0
 28 29  1  0
 29 30  2  0
 30 31  1  0
 31 32  2  0
 32 33  1  0
 23 34  1  0
 34 35  2  0
 17 36  2  0
 36 37  1  0
 37 38  2  0
 38  3  1  0
 37  6  1  0
 15 10  1  0
 35 20  1  0
 32 27  1  0
M  END
>  <molecule_chembl_id>  (534) 
CHEMBL4538745

>  <canonical_smiles>  (534) 
COc1ccc2c(=O)n(-c3ccccc3Cl)c(SCc3ccc(C(=O)Nc4ccccc4N)cc3)nc2c1

>  <pchembl_value_mean>  (534) 
6.21

>  <document_chembl_id>  (534) 
CHEMBL4393680

$$$$

     RDKit          2D

 22 23  0  0  0  0  0  0  0  0999 V2000
    2.0490   -4.6471    0.0000 C   0  0  0  0  0  0  0  0  0  0  0  0
    0.7500   -3.8971    0.0000 C   0  0  0  0  0  0  0  0  0  0  0  0
   -0.5490   -3.1471    0.0000 C   0  0  0  0  0  0  0  0  0  0  0  0
    1.5000   -2.5981    0.0000 N   0  0  0  0  0  0  0  0  0  0  0  0
    0.7500   -1.2990    0.0000 C   0  0  0  0  0  0  0  0  0  0  0  0
    1.5000    0.0000    0.0000 N   0  0  0  0  0  0  0  0  0  0  0  0
    0.7500    1.2990    0.0000 C   0  0  0  0  0  0  0  0  0  0  0  0
   -0.7500    1.2990    0.0000 C   0  0  0  0  0  0  0  0  0  0  0  0
   -1.5000    2.5981    0.0000 C   0  0  0  0  0  0  0  0  0  0  0  0
   -3.0000    2.5981    0.0000 O   0  0  0  0  0  0  0  0  0  0  0  0
   -0.7500    3.8971    0.0000 N   0  0  0  0  0  0  0  0  0  0  0  0
   -1.5000    5.1962    0.0000 O   0  0  0  0  0  0  0  0  0  0  0  0
   -1.5000    0.0000    0.0000 C   0  0  0  0  0  0  0  0  0  0  0  0
   -0.7500   -1.2990    0.0000 N   0  0  0  0  0  0  0  0  0  0  0  0
   -0.0000   -5.1962    0.0000 C   0  0  0  0  0  0  0  0  0  0  0  0
   -1.5000   -5.1962    0.0000 C   0  0  0  0  0  0  0  0  0  0  0  0
   -2.2500   -6.4952    0.0000 C   0  0  0  0  0  0  0  0  0  0  0  0
   -1.5000   -7.7942    0.0000 C   0  0  0  0  0  0  0  0  0  0  0  0
   -2.2500   -9.0933    0.0000 F   0  0  0  0  0  0  0  0  0  0  0  0
   -0.0000   -7.7942    0.0000 C   0  0  0  0  0  0  0  0  0  0  0  0
    0.7500   -9.0933    0.0000 F   0  0  0  0  0  0  0  0  0  0  0  0
    0.7500   -6.4952    0.0000 C   0  0  0  0  0  0  0  0  0  0  0  0
  1  2  1  0
  2  3  1  0
  2  4  1  0
  4  5  1  0
  5  6  2  0
  6  7  1  0
  7  8  2  0
  8  9  1  0
  9 10  2  0
  9 11  1  0
 11 12  1  0
  8 13  1  0
 13 14  2  0
  2 15  1  0
 15 16  2  0
 16 17  1  0
 17 18  2  0
 18 19  1  0
 18 20  1  0
 20 21  1  0
 20 22  2  0
 14  5  1  0
 22 15  1  0
M  END
>  <molecule_chembl_id>  (535) 
CHEMBL3655953

>  <canonical_smiles>  (535) 
CC(C)(Nc1ncc(C(=O)NO)cn1)c1ccc(F)c(F)c1

>  <pchembl_value_mean>  (535) 
6.21

>  <document_chembl_id>  (535) 
CHEMBL3639071

$$$$

     RDKit          2D

 47 51  0  0  0  0  0  0  0  0999 V2000
   17.2500  -14.2894    0.0000 N   0  0  0  0  0  0  0  0  0  0  0  0
   16.5000  -15.5885    0.0000 C   0  0  0  0  0  0  0  0  0  0  0  0
   17.2500  -16.8875    0.0000 C   0  0  0  0  0  0  0  0  0  0  0  0
   16.5000  -18.1865    0.0000 C   0  0  0  0  0  0  0  0  0  0  0  0
   15.0000  -18.1865    0.0000 C   0  0  0  0  0  0  0  0  0  0  0  0
   14.2500  -16.8875    0.0000 C   0  0  0  0  0  0  0  0  0  0  0  0
   15.0000  -15.5885    0.0000 C   0  0  0  0  0  0  0  0  0  0  0  0
   14.2500  -14.2894    0.0000 N   0  0  0  0  0  0  0  0  0  0  0  0
   15.0000  -12.9904    0.0000 C   0  0  0  0  0  0  0  0  0  0  0  0
   16.5000  -12.9904    0.0000 O   0  0  0  0  0  0  0  0  0  0  0  0
   14.2500  -11.6913    0.0000 C   0  0  0  0  0  0  0  0  0  0  0  0
   15.0000  -10.3923    0.0000 C   0  0  0  0  0  0  0  0  0  0  0  0
   14.2500   -9.0933    0.0000 C   0  0  0  0  0  0  0  0  0  0  0  0
   12.7500   -9.0933    0.0000 C   0  0  0  0  0  0  0  0  0  0  0  0
   12.0000   -7.7942    0.0000 N   0  0  0  0  0  0  0  0  0  0  0  0
   10.5000   -7.7942    0.0000 C   0  0  0  0  0  0  0  0  0  0  0  0
    9.7500   -9.0933    0.0000 O   0  0  0  0  0  0  0  0  0  0  0  0
    9.7500   -6.4952    0.0000 C   0  0  0  0  0  0  0  0  0  0  0  0
    8.2500   -6.4952    0.0000 C   0  0  0  0  0  0  0  0  0  0  0  0
    7.5000   -5.1962    0.0000 C   0  0  0  0  0  0  0  0  0  0  0  0
    6.0000   -5.1962    0.0000 C   0  0  0  0  0  0  0  0  0  0  0  0
    5.2500   -3.8971    0.0000 N   0  0  0  0  0  0  0  0  0  0  0  0
    3.7500   -3.8971    0.0000 C   0  0  0  0  0  0  0  0  0  0  0  0
    3.0000   -5.1962    0.0000 O   0  0  0  0  0  0  0  0  0  0  0  0
    3.0000   -2.5981    0.0000 C   0  0  0  0  0  0  0  0  0  0  0  0
    1.5000   -2.5981    0.0000 N   0  0  0  0  0  0  0  0  0  0  0  0
    0.7500   -1.2990    0.0000 C   0  0  0  0  0  0  0  0  0  0  0  0
    1.5000    0.0000    0.0000 C   0  0  0  0  0  0  0  0  0  0  0  0
    0.7500    1.2990    0.0000 C   0  0  0  0  0  0  0  0  0  0  0  0
   -0.7500    1.2990    0.0000 C   0  0  0  0  0  0  0  0  0  0  0  0
   -1.5000    0.0000    0.0000 C   0  0  0  0  0  0  0  0  0  0  0  0
   -0.7500   -1.2990    0.0000 C   0  0  0  0  0  0  0  0  0  0  0  0
   -1.7537   -2.4138    0.0000 C   0  0  0  0  0  0  0  0  0  0  0  0
   -1.4418   -3.8810    0.0000 O   0  0  0  0  0  0  0  0  0  0  0  0
   -3.1240   -1.8037    0.0000 N   0  0  0  0  0  0  0  0  0  0  0  0
   -4.4231   -2.5537    0.0000 C   0  0  0  0  0  0  0  0  0  0  0  0
   -5.7221   -1.8037    0.0000 C   0  0  0  0  0  0  0  0  0  0  0  0
   -7.0211   -2.5537    0.0000 C   0  0  0  0  0  0  0  0  0  0  0  0
   -7.0211   -4.0537    0.0000 C   0  0  0  0  0  0  0  0  0  0  0  0
   -8.3202   -4.8037    0.0000 O   0  0  0  0  0  0  0  0  0  0  0  0
   -5.7221   -4.8037    0.0000 N   0  0  0  0  0  0  0  0  0  0  0  0
   -4.4231   -4.0537    0.0000 C   0  0  0  0  0  0  0  0  0  0  0  0
   -3.1240   -4.8037    0.0000 O   0  0  0  0  0  0  0  0  0  0  0  0
   -2.9672   -0.3119    0.0000 C   0  0  0  0  0  0  0  0  0  0  0  0
   -4.0819    0.6918    0.0000 O   0  0  0  0  0  0  0  0  0  0  0  0
   12.0000  -10.3923    0.0000 C   0  0  0  0  0  0  0  0  0  0  0  0
   12.7500  -11.6913    0.0000 C   0  0  0  0  0  0  0  0  0  0  0  0
  1  2  1  0
  2  3  2  0
  3  4  1  0
  4  5  2  0
  5  6  1  0
  6  7  2  0
  7  8  1  0
  8  9  1  0
  9 10  2  0
  9 11  1  0
 11 12  2  0
 12 13  1  0
 13 14  2  0
 14 15  1  0
 15 16  1  0
 16 17  2  0
 16 18  1  0
 18 19  1  0
 19 20  1  0
 20 21  1  0
 21 22  1  0
 22 23  1  0
 23 24  2  0
 23 25  1  0
 25 26  1  0
 26 27  1  0
 27 28  2  0
 28 29  1  0
 29 30  2  0
 30 31  1  0
 31 32  2  0
 32 33  1  0
 33 34  2  0
 33 35  1  0
 35 36  1  0
 36 37  1  0
 37 38  1  0
 38 39  1  0
 39 40  2  0
 39 41  1  0
 41 42  1  0
 42 43  2  0
 35 44  1  0
 44 45  2  0
 14 46  1  0
 46 47  2  0
  7  2  1  0
 47 11  1  0
 32 27  1  0
 42 36  1  0
 44 31  1  0
M  END
>  <molecule_chembl_id>  (536) 
CHEMBL4757641

>  <canonical_smiles>  (536) 
Nc1ccccc1NC(=O)c1ccc(NC(=O)CCCCNC(=O)CNc2cccc3c2C(=O)N(C2CCC(=O)NC2=O)C3=O)cc1

>  <pchembl_value_mean>  (536) 
6.21

>  <document_chembl_id>  (536) 
CHEMBL4706593

$$$$

     RDKit          2D

 29 32  0  0  0  0  0  0  0  0999 V2000
    3.0000    0.0000    0.0000 N   0  0  0  0  0  0  0  0  0  0  0  0
    1.5000    0.0000    0.0000 C   0  0  0  0  0  0  0  0  0  0  0  0
    0.7500   -1.2990    0.0000 C   0  0  0  0  0  0  0  0  0  0  0  0
   -0.7500   -1.2990    0.0000 C   0  0  0  0  0  0  0  0  0  0  0  0
   -1.5000    0.0000    0.0000 C   0  0  0  0  0  0  0  0  0  0  0  0
   -0.7500    1.2990    0.0000 C   0  0  0  0  0  0  0  0  0  0  0  0
    0.7500    1.2990    0.0000 C   0  0  0  0  0  0  0  0  0  0  0  0
    1.5000    2.5981    0.0000 N   0  0  0  0  0  0  0  0  0  0  0  0
    0.7500    3.8971    0.0000 C   0  0  0  0  0  0  0  0  0  0  0  0
   -0.7500    3.8971    0.0000 O   0  0  0  0  0  0  0  0  0  0  0  0
    1.5000    5.1962    0.0000 C   0  0  0  0  0  0  0  0  0  0  0  0
    3.0000    5.1962    0.0000 C   0  0  0  0  0  0  0  0  0  0  0  0
    3.7500    6.4952    0.0000 C   0  0  0  0  0  0  0  0  0  0  0  0
    3.0000    7.7942    0.0000 C   0  0  0  0  0  0  0  0  0  0  0  0
    3.7500    9.0933    0.0000 C   0  0  0  0  0  0  0  0  0  0  0  0
    5.2500    9.0933    0.0000 S   0  0  0  0  0  0  0  0  0  0  0  0
    6.0000   10.3923    0.0000 C   0  0  0  0  0  0  0  0  0  0  0  0
    5.3899   11.7626    0.0000 N   0  0  0  0  0  0  0  0  0  0  0  0
    6.5046   12.7663    0.0000 C   0  0  0  0  0  0  0  0  0  0  0  0
    6.3478   14.2581    0.0000 C   0  0  0  0  0  0  0  0  0  0  0  0
    7.5613   15.1398    0.0000 C   0  0  0  0  0  0  0  0  0  0  0  0
    7.4046   16.6316    0.0000 C   0  0  0  0  0  0  0  0  0  0  0  0
    6.0342   17.2417    0.0000 C   0  0  0  0  0  0  0  0  0  0  0  0
    4.8207   16.3600    0.0000 N   0  0  0  0  0  0  0  0  0  0  0  0
    4.9775   14.8682    0.0000 C   0  0  0  0  0  0  0  0  0  0  0  0
    7.8037   12.0163    0.0000 C   0  0  0  0  0  0  0  0  0  0  0  0
    7.4918   10.5491    0.0000 O   0  0  0  0  0  0  0  0  0  0  0  0
    1.5000    7.7942    0.0000 C   0  0  0  0  0  0  0  0  0  0  0  0
    0.7500    6.4952    0.0000 C   0  0  0  0  0  0  0  0  0  0  0  0
  1  2  1  0
  2  3  2  0
  3  4  1  0
  4  5  2  0
  5  6  1  0
  6  7  2  0
  7  8  1  0
  8  9  1  0
  9 10  2  0
  9 11  1  0
 11 12  2  0
 12 13  1  0
 13 14  2  0
 14 15  1  0
 15 16  1  0
 16 17  1  0
 17 18  2  0
 18 19  1  0
 19 20  1  0
 20 21  2  0
 21 22  1  0
 22 23  2  0
 23 24  1  0
 24 25  2  0
 19 26  1  0
 26 27  1  0
 14 28  1  0
 28 29  2  0
  7  2  1  0
 29 11  1  0
 27 17  1  0
 25 20  1  0
M  END
>  <molecule_chembl_id>  (537) 
CHEMBL3605492

>  <canonical_smiles>  (537) 
Nc1ccccc1NC(=O)c1ccc(CSC2=NC(c3cccnc3)CO2)cc1

>  <pchembl_value_mean>  (537) 
6.21

>  <document_chembl_id>  (537) 
CHEMBL3603817

$$$$

     RDKit          2D

 31 33  0  0  0  0  0  0  0  0999 V2000
   -0.7500  -11.6913    0.0000 O   0  0  0  0  0  0  0  0  0  0  0  0
    0.7500  -11.6913    0.0000 C   0  0  0  0  0  0  0  0  0  0  0  0
    1.5000  -10.3923    0.0000 C   0  0  0  0  0  0  0  0  0  0  0  0
    0.7500   -9.0933    0.0000 C   0  0  0  0  0  0  0  0  0  0  0  0
    1.5000   -7.7942    0.0000 C   0  0  0  0  0  0  0  0  0  0  0  0
    0.7500   -6.4952    0.0000 C   0  0  0  0  0  0  0  0  0  0  0  0
    1.5000   -5.1962    0.0000 C   0  0  0  0  0  0  0  0  0  0  0  0
    0.7500   -3.8971    0.0000 C   0  0  0  0  0  0  0  0  0  0  0  0
    1.5000   -2.5981    0.0000 N   0  0  0  0  0  0  0  0  0  0  0  0
    0.7500   -1.2990    0.0000 C   0  0  0  0  0  0  0  0  0  0  0  0
    1.5000    0.0000    0.0000 C   0  0  0  0  0  0  0  0  0  0  0  0
    0.7500    1.2990    0.0000 C   0  0  0  0  0  0  0  0  0  0  0  0
   -0.7500    1.2990    0.0000 C   0  0  0  0  0  0  0  0  0  0  0  0
   -1.5000    0.0000    0.0000 C   0  0  0  0  0  0  0  0  0  0  0  0
   -0.7500   -1.2990    0.0000 N   0  0  0  0  0  0  0  0  0  0  0  0
    3.0000   -2.5981    0.0000 C   0  0  0  0  0  0  0  0  0  0  0  0
    3.7500   -3.8971    0.0000 C   0  0  0  0  0  0  0  0  0  0  0  0
    5.2500   -3.8971    0.0000 C   0  0  0  0  0  0  0  0  0  0  0  0
    6.0000   -5.1962    0.0000 O   0  0  0  0  0  0  0  0  0  0  0  0
    5.2500   -6.4952    0.0000 C   0  0  0  0  0  0  0  0  0  0  0  0
    6.0000   -7.7942    0.0000 C   0  0  0  0  0  0  0  0  0  0  0  0
    5.2500   -9.0933    0.0000 C   0  0  0  0  0  0  0  0  0  0  0  0
    6.0000  -10.3923    0.0000 C   0  0  0  0  0  0  0  0  0  0  0  0
    7.5000  -10.3923    0.0000 C   0  0  0  0  0  0  0  0  0  0  0  0
    8.2500   -9.0933    0.0000 C   0  0  0  0  0  0  0  0  0  0  0  0
    7.5000   -7.7942    0.0000 C   0  0  0  0  0  0  0  0  0  0  0  0
    6.0000   -2.5981    0.0000 C   0  0  0  0  0  0  0  0  0  0  0  0
    5.2500   -1.2990    0.0000 C   0  0  0  0  0  0  0  0  0  0  0  0
    3.7500   -1.2990    0.0000 N   0  0  0  0  0  0  0  0  0  0  0  0
    1.5000  -12.9904    0.0000 N   0  0  0  0  0  0  0  0  0  0  0  0
    0.7500  -14.2894    0.0000 O   0  0  0  0  0  0  0  0  0  0  0  0
  1  2  2  0
  2  3  1  0
  3  4  1  0
  4  5  1  0
  5  6  1  0
  6  7  1  0
  7  8  1  0
  8  9  1  0
  9 10  1  0
 10 11  2  0
 11 12  1  0
 12 13  2  0
 13 14  1  0
 14 15  2  0
  9 16  1  0
 16 17  2  0
 17 18  1  0
 18 19  1  0
 19 20  1  0
 20 21  1  0
 21 22  2  0
 22 23  1  0
 23 24  2  0
 24 25  1  0
 25 26  2  0
 18 27  2  0
 27 28  1  0
 28 29  2  0
  2 30  1  0
 30 31  1  0
 15 10  1  0
 29 16  1  0
 26 21  1  0
M  END
>  <molecule_chembl_id>  (538) 
CHEMBL3675765

>  <canonical_smiles>  (538) 
O=C(CCCCCCN(c1ccccn1)c1cc(OCc2ccccc2)ccn1)NO

>  <pchembl_value_mean>  (538) 
6.21

>  <document_chembl_id>  (538) 
CHEMBL3639343

$$$$

     RDKit          2D

 26 29  0  0  0  0  0  0  0  0999 V2000
    3.7500   -3.8971    0.0000 N   0  0  0  0  0  0  0  0  0  0  0  0
    3.0000   -5.1962    0.0000 C   0  0  0  0  0  0  0  0  0  0  0  0
    3.7500   -6.4952    0.0000 C   0  0  0  0  0  0  0  0  0  0  0  0
    3.0000   -7.7942    0.0000 C   0  0  0  0  0  0  0  0  0  0  0  0
    1.5000   -7.7942    0.0000 C   0  0  0  0  0  0  0  0  0  0  0  0
    0.7500   -6.4952    0.0000 C   0  0  0  0  0  0  0  0  0  0  0  0
    1.5000   -5.1962    0.0000 C   0  0  0  0  0  0  0  0  0  0  0  0
    0.7500   -3.8971    0.0000 N   0  0  0  0  0  0  0  0  0  0  0  0
    1.5000   -2.5981    0.0000 C   0  0  0  0  0  0  0  0  0  0  0  0
    3.0000   -2.5981    0.0000 O   0  0  0  0  0  0  0  0  0  0  0  0
    0.7500   -1.2990    0.0000 C   0  0  0  0  0  0  0  0  0  0  0  0
    1.5000    0.0000    0.0000 C   0  0  0  0  0  0  0  0  0  0  0  0
    0.7500    1.2990    0.0000 C   0  0  0  0  0  0  0  0  0  0  0  0
   -0.7500    1.2990    0.0000 C   0  0  0  0  0  0  0  0  0  0  0  0
   -1.5000    2.5981    0.0000 N   0  0  0  0  0  0  0  0  0  0  0  0
   -3.0000    2.5981    0.0000 C   0  0  0  0  0  0  0  0  0  0  0  0
   -3.7500    3.8971    0.0000 N   0  0  0  0  0  0  0  0  0  0  0  0
   -3.0000    5.1962    0.0000 C   0  0  0  0  0  0  0  0  0  0  0  0
   -3.7500    6.4952    0.0000 C   0  0  0  0  0  0  0  0  0  0  0  0
   -5.2500    6.4952    0.0000 N   0  0  0  0  0  0  0  0  0  0  0  0
   -6.0000    5.1962    0.0000 C   0  0  0  0  0  0  0  0  0  0  0  0
   -5.2500    3.8971    0.0000 C   0  0  0  0  0  0  0  0  0  0  0  0
   -3.7500    1.2990    0.0000 C   0  0  0  0  0  0  0  0  0  0  0  0
   -3.0000    0.0000    0.0000 C   0  0  0  0  0  0  0  0  0  0  0  0
   -1.5000    0.0000    0.0000 C   0  0  0  0  0  0  0  0  0  0  0  0
   -0.7500   -1.2990    0.0000 C   0  0  0  0  0  0  0  0  0  0  0  0
  1  2  1  0
  2  3  2  0
  3  4  1  0
  4  5  2  0
  5  6  1  0
  6  7  2  0
  7  8  1  0
  8  9  1  0
  9 10  2  0
  9 11  1  0
 11 12  2  0
 12 13  1  0
 13 14  2  0
 14 15  1  0
 15 16  2  0
 16 17  1  0
 17 18  1  0
 18 19  1  0
 19 20  1  0
 20 21  1  0
 21 22  1  0
 16 23  1  0
 23 24  2  0
 24 25  1  0
 25 26  2  0
  7  2  1  0
 26 11  1  0
 25 14  1  0
 22 17  1  0
M  END
>  <molecule_chembl_id>  (539) 
CHEMBL3911952

>  <canonical_smiles>  (539) 
Nc1ccccc1NC(=O)c1ccc2nc(N3CCNCC3)ccc2c1

>  <pchembl_value_mean>  (539) 
6.21

>  <document_chembl_id>  (539) 
CHEMBL3886267

$$$$

     RDKit          2D

 20 21  0  0  0  0  0  0  0  0999 V2000
    3.7500    1.2990    0.0000 O   0  0  0  0  0  0  0  0  0  0  0  0
    3.0000    0.0000    0.0000 C   0  0  0  0  0  0  0  0  0  0  0  0
    3.7500   -1.2990    0.0000 N   0  0  0  0  0  0  0  0  0  0  0  0
    5.2500   -1.2990    0.0000 O   0  0  0  0  0  0  0  0  0  0  0  0
    1.5000    0.0000    0.0000 C   0  0  0  0  0  0  0  0  0  0  0  0
    0.7500   -1.2990    0.0000 C   0  0  0  0  0  0  0  0  0  0  0  0
   -0.7500   -1.2990    0.0000 N   0  0  0  0  0  0  0  0  0  0  0  0
   -1.5000    0.0000    0.0000 C   0  0  0  0  0  0  0  0  0  0  0  0
   -3.0000    0.0000    0.0000 N   0  0  0  0  0  0  0  0  0  0  0  0
   -3.7500    1.2990    0.0000 C   0  0  0  0  0  0  0  0  0  0  0  0
   -5.2500    1.2990    0.0000 C   0  0  0  0  0  0  0  0  0  0  0  0
   -6.0000    2.5981    0.0000 C   0  0  0  0  0  0  0  0  0  0  0  0
   -5.2500    3.8971    0.0000 Cl  0  0  0  0  0  0  0  0  0  0  0  0
   -7.5000    2.5981    0.0000 C   0  0  0  0  0  0  0  0  0  0  0  0
   -8.2500    1.2990    0.0000 C   0  0  0  0  0  0  0  0  0  0  0  0
   -7.5000    0.0000    0.0000 C   0  0  0  0  0  0  0  0  0  0  0  0
   -6.0000    0.0000    0.0000 C   0  0  0  0  0  0  0  0  0  0  0  0
   -5.2500   -1.2990    0.0000 Cl  0  0  0  0  0  0  0  0  0  0  0  0
   -0.7500    1.2990    0.0000 N   0  0  0  0  0  0  0  0  0  0  0  0
    0.7500    1.2990    0.0000 C   0  0  0  0  0  0  0  0  0  0  0  0
  1  2  2  0
  2  3  1  0
  3  4  1  0
  2  5  1  0
  5  6  2  0
  6  7  1  0
  7  8  2  0
  8  9  1  0
  9 10  1  0
 10 11  1  0
 11 12  2  0
 12 13  1  0
 12 14  1  0
 14 15  2  0
 15 16  1  0
 16 17  2  0
 17 18  1  0
  8 19  1  0
 19 20  2  0
 20  5  1  0
 17 11  1  0
M  END
>  <molecule_chembl_id>  (540) 
CHEMBL3655931

>  <canonical_smiles>  (540) 
O=C(NO)c1cnc(NCc2c(Cl)cccc2Cl)nc1

>  <pchembl_value_mean>  (540) 
6.22

>  <document_chembl_id>  (540) 
CHEMBL3639071

$$$$

     RDKit          2D

 13 13  0  0  0  0  0  0  0  0999 V2000
    5.2500   -3.8971    0.0000 O   0  0  0  0  0  0  0  0  0  0  0  0
    6.0000   -2.5981    0.0000 C   0  0  0  0  0  0  0  0  0  0  0  0
    5.2500   -1.2990    0.0000 C   0  0  0  0  0  0  0  0  0  0  0  0
    3.7500   -1.2990    0.0000 C   0  0  0  0  0  0  0  0  0  0  0  0
    3.0000    0.0000    0.0000 C   0  0  0  0  0  0  0  0  0  0  0  0
    1.5000    0.0000    0.0000 C   0  0  0  0  0  0  0  0  0  0  0  0
    0.7500   -1.2990    0.0000 C   0  0  0  0  0  0  0  0  0  0  0  0
   -0.7500   -1.2990    0.0000 C   0  0  0  0  0  0  0  0  0  0  0  0
   -1.5000    0.0000    0.0000 C   0  0  0  0  0  0  0  0  0  0  0  0
   -0.7500    1.2990    0.0000 C   0  0  0  0  0  0  0  0  0  0  0  0
    0.7500    1.2990    0.0000 C   0  0  0  0  0  0  0  0  0  0  0  0
    7.5000   -2.5981    0.0000 N   0  0  0  0  0  0  0  0  0  0  0  0
    8.2500   -3.8971    0.0000 O   0  0  0  0  0  0  0  0  0  0  0  0
  1  2  2  0
  2  3  1  0
  3  4  1  0
  4  5  1  0
  5  6  1  0
  6  7  2  0
  7  8  1  0
  8  9  2  0
  9 10  1  0
 10 11  2  0
  2 12  1  0
 12 13  1  0
 11  6  1  0
M  END
>  <molecule_chembl_id>  (541) 
CHEMBL55895

>  <canonical_smiles>  (541) 
O=C(CCCc1ccccc1)NO

>  <pchembl_value_mean>  (541) 
6.22

>  <document_chembl_id>  (541) 
CHEMBL1671826

$$$$

     RDKit          2D

 29 30  0  0  0  0  0  0  0  0999 V2000
    3.0000    0.0000    0.0000 C   0  0  0  0  0  0  0  0  0  0  0  0
    1.5000    0.0000    0.0000 C   0  0  0  0  0  0  0  0  0  0  0  0
    0.7500   -1.2990    0.0000 C   0  0  0  0  0  0  0  0  0  0  0  0
   -0.7500   -1.2990    0.0000 C   0  0  0  0  0  0  0  0  0  0  0  0
   -1.5000    0.0000    0.0000 C   0  0  0  0  0  0  0  0  0  0  0  0
   -0.7500    1.2990    0.0000 C   0  0  0  0  0  0  0  0  0  0  0  0
   -1.5000    2.5981    0.0000 C   0  0  0  0  0  0  0  0  0  0  0  0
   -0.7500    3.8971    0.0000 C   0  0  0  0  0  0  0  0  0  0  0  0
   -1.5000    5.1962    0.0000 N   0  0  0  0  0  0  0  0  0  0  0  0
   -0.7500    6.4952    0.0000 C   0  0  0  0  0  0  0  0  0  0  0  0
    0.7500    6.4952    0.0000 O   0  0  0  0  0  0  0  0  0  0  0  0
   -1.5000    7.7942    0.0000 C   0  0  0  0  0  0  0  0  0  0  0  0
   -0.7500    9.0933    0.0000 C   0  0  0  0  0  0  0  0  0  0  0  0
   -1.5000   10.3923    0.0000 C   0  0  0  0  0  0  0  0  0  0  0  0
   -0.7500   11.6913    0.0000 C   0  0  0  0  0  0  0  0  0  0  0  0
   -1.5000   12.9904    0.0000 C   0  0  0  0  0  0  0  0  0  0  0  0
   -0.7500   14.2894    0.0000 C   0  0  0  0  0  0  0  0  0  0  0  0
   -1.5000   15.5885    0.0000 S   0  0  0  0  0  0  0  0  0  0  0  0
   -3.0000    7.7942    0.0000 N   0  0  0  0  0  0  0  0  0  0  0  0
   -3.7500    9.0933    0.0000 C   0  0  0  0  0  0  0  0  0  0  0  0
   -3.0000   10.3923    0.0000 O   0  0  0  0  0  0  0  0  0  0  0  0
   -5.2500    9.0933    0.0000 C   0  0  0  0  0  0  0  0  0  0  0  0
   -6.0000   10.3923    0.0000 C   0  0  0  0  0  0  0  0  0  0  0  0
   -7.5000   10.3923    0.0000 C   0  0  0  0  0  0  0  0  0  0  0  0
   -8.2500    9.0933    0.0000 C   0  0  0  0  0  0  0  0  0  0  0  0
   -7.5000    7.7942    0.0000 C   0  0  0  0  0  0  0  0  0  0  0  0
   -8.2500    6.4952    0.0000 O   0  0  0  0  0  0  0  0  0  0  0  0
   -6.0000    7.7942    0.0000 N   0  0  0  0  0  0  0  0  0  0  0  0
    0.7500    1.2990    0.0000 C   0  0  0  0  0  0  0  0  0  0  0  0
  1  2  1  0
  2  3  2  0
  3  4  1  0
  4  5  2  0
  5  6  1  0
  6  7  1  0
  7  8  1  0
  8  9  1  0
  9 10  1  0
 10 11  2  0
 10 12  1  0
 12 13  1  0
 13 14  1  0
 14 15  1  0
 15 16  1  0
 16 17  1  0
 17 18  1  0
 12 19  1  0
 19 20  1  0
 20 21  2  0
 20 22  1  0
 22 23  1  0
 23 24  1  0
 24 25  1  0
 25 26  1  0
 26 27  2  0
 26 28  1  0
  6 29  2  0
 29  2  1  0
 28 22  1  0
M  END
>  <molecule_chembl_id>  (542) 
CHEMBL3356937

>  <canonical_smiles>  (542) 
Cc1cccc(CCNC(=O)C(CCCCCS)NC(=O)C2CCCC(=O)N2)c1

>  <pchembl_value_mean>  (542) 
6.22

>  <document_chembl_id>  (542) 
CHEMBL3352570

$$$$

     RDKit          2D

 21 22  0  0  0  0  0  0  0  0999 V2000
    3.7500    1.2990    0.0000 O   0  0  0  0  0  0  0  0  0  0  0  0
    3.0000    0.0000    0.0000 C   0  0  0  0  0  0  0  0  0  0  0  0
    3.7500   -1.2990    0.0000 N   0  0  0  0  0  0  0  0  0  0  0  0
    5.2500   -1.2990    0.0000 O   0  0  0  0  0  0  0  0  0  0  0  0
    1.5000    0.0000    0.0000 C   0  0  0  0  0  0  0  0  0  0  0  0
    0.7500   -1.2990    0.0000 C   0  0  0  0  0  0  0  0  0  0  0  0
   -0.7500   -1.2990    0.0000 C   0  0  0  0  0  0  0  0  0  0  0  0
   -1.5000    0.0000    0.0000 C   0  0  0  0  0  0  0  0  0  0  0  0
   -3.0000    0.0000    0.0000 C   0  0  0  0  0  0  0  0  0  0  0  0
   -3.7500   -1.2990    0.0000 O   0  0  0  0  0  0  0  0  0  0  0  0
   -3.7500    1.2990    0.0000 N   0  0  0  0  0  0  0  0  0  0  0  0
   -5.2500    1.2990    0.0000 C   0  0  0  0  0  0  0  0  0  0  0  0
   -6.0000    2.5981    0.0000 C   0  0  0  0  0  0  0  0  0  0  0  0
   -7.5000    2.5981    0.0000 C   0  0  0  0  0  0  0  0  0  0  0  0
   -8.2500    3.8971    0.0000 C   0  0  0  0  0  0  0  0  0  0  0  0
   -9.7500    3.8971    0.0000 C   0  0  0  0  0  0  0  0  0  0  0  0
  -10.5000    2.5981    0.0000 C   0  0  0  0  0  0  0  0  0  0  0  0
   -9.7500    1.2990    0.0000 C   0  0  0  0  0  0  0  0  0  0  0  0
   -8.2500    1.2990    0.0000 C   0  0  0  0  0  0  0  0  0  0  0  0
   -0.7500    1.2990    0.0000 C   0  0  0  0  0  0  0  0  0  0  0  0
    0.7500    1.2990    0.0000 C   0  0  0  0  0  0  0  0  0  0  0  0
  1  2  2  0
  2  3  1  0
  3  4  1  0
  2  5  1  0
  5  6  2  0
  6  7  1  0
  7  8  2  0
  8  9  1  0
  9 10  2  0
  9 11  1  0
 11 12  1  0
 12 13  1  0
 13 14  1  0
 14 15  2  0
 15 16  1  0
 16 17  2  0
 17 18  1  0
 18 19  2  0
  8 20  1  0
 20 21  2  0
 21  5  1  0
 19 14  1  0
M  END
>  <molecule_chembl_id>  (543) 
CHEMBL2333340

>  <canonical_smiles>  (543) 
O=C(NO)c1ccc(C(=O)NCCc2ccccc2)cc1

>  <pchembl_value_mean>  (543) 
6.22

>  <document_chembl_id>  (543) 
CHEMBL2331470

$$$$

     RDKit          2D

 34 35  0  0  0  0  0  0  0  0999 V2000
    3.7500   -1.2990    0.0000 C   0  0  0  0  0  0  0  0  0  0  0  0
    3.0000    0.0000    0.0000 C   0  0  0  0  0  0  0  0  0  0  0  0
    3.7500    1.2990    0.0000 C   0  0  0  0  0  0  0  0  0  0  0  0
    1.5000    0.0000    0.0000 C   0  0  0  0  0  0  0  0  0  0  0  0
    0.7500   -1.2990    0.0000 N   0  0  0  0  0  0  0  0  0  0  0  0
   -0.7500   -1.2990    0.0000 C   0  0  0  0  0  0  0  0  0  0  0  0
   -1.5000   -2.5981    0.0000 N   0  0  0  0  0  0  0  0  0  0  0  0
   -3.0000   -2.5981    0.0000 C   0  0  0  0  0  0  0  0  0  0  0  0
   -0.7500   -3.8971    0.0000 S   0  0  0  0  0  0  0  0  0  0  0  0
   -0.0000   -5.1962    0.0000 C   0  0  0  0  0  0  0  0  0  0  0  0
    0.5490   -3.1471    0.0000 O   0  0  0  0  0  0  0  0  0  0  0  0
   -2.0490   -4.6471    0.0000 O   0  0  0  0  0  0  0  0  0  0  0  0
   -1.5000    0.0000    0.0000 N   0  0  0  0  0  0  0  0  0  0  0  0
   -0.7500    1.2990    0.0000 C   0  0  0  0  0  0  0  0  0  0  0  0
   -1.5000    2.5981    0.0000 C   0  0  0  0  0  0  0  0  0  0  0  0
   -0.7500    3.8971    0.0000 C   0  0  0  0  0  0  0  0  0  0  0  0
   -1.5000    5.1962    0.0000 C   0  0  0  0  0  0  0  0  0  0  0  0
   -3.0000    5.1962    0.0000 C   0  0  0  0  0  0  0  0  0  0  0  0
   -3.7500    6.4952    0.0000 F   0  0  0  0  0  0  0  0  0  0  0  0
   -3.7500    3.8971    0.0000 C   0  0  0  0  0  0  0  0  0  0  0  0
   -3.0000    2.5981    0.0000 C   0  0  0  0  0  0  0  0  0  0  0  0
    0.7500    1.2990    0.0000 C   0  0  0  0  0  0  0  0  0  0  0  0
    1.5000    2.5981    0.0000 C   0  0  0  0  0  0  0  0  0  0  0  0
    3.0000    2.5981    0.0000 C   0  0  0  0  0  0  0  0  0  0  0  0
    3.7500    3.8971    0.0000 C   0  0  0  0  0  0  0  0  0  0  0  0
    3.0000    5.1962    0.0000 O   0  0  0  0  0  0  0  0  0  0  0  0
    5.2500    3.8971    0.0000 C   0  0  0  0  0  0  0  0  0  0  0  0
    6.0000    5.1962    0.0000 C   0  0  0  0  0  0  0  0  0  0  0  0
    5.2500    6.4952    0.0000 O   0  0  0  0  0  0  0  0  0  0  0  0
    7.5000    5.1962    0.0000 C   0  0  0  0  0  0  0  0  0  0  0  0
    8.2500    6.4952    0.0000 C   0  0  0  0  0  0  0  0  0  0  0  0
    7.5000    7.7942    0.0000 O   0  0  0  0  0  0  0  0  0  0  0  0
    9.7500    6.4952    0.0000 N   0  0  0  0  0  0  0  0  0  0  0  0
   10.5000    7.7942    0.0000 O   0  0  0  0  0  0  0  0  0  0  0  0
  1  2  1  0
  2  3  1  0
  2  4  1  0
  4  5  2  0
  5  6  1  0
  6  7  1  0
  7  8  1  0
  7  9  1  0
  9 10  1  0
  9 11  2  0
  9 12  2  0
  6 13  2  0
 13 14  1  0
 14 15  1  0
 15 16  2  0
 16 17  1  0
 17 18  2  0
 18 19  1  0
 18 20  1  0
 20 21  2  0
 14 22  2  0
 22 23  1  0
 23 24  2  3
 24 25  1  0
 25 26  1  0
 25 27  1  0
 27 28  1  0
 28 29  1  0
 28 30  1  0
 30 31  1  0
 31 32  2  0
 31 33  1  0
 33 34  1  0
 22  4  1  0
 21 15  1  0
M  END
>  <molecule_chembl_id>  (544) 
CHEMBL2347009

>  <canonical_smiles>  (544) 
CC(C)c1nc(N(C)S(C)(=O)=O)nc(-c2ccc(F)cc2)c1C=CC(O)CC(O)CC(=O)NO

>  <pchembl_value_mean>  (544) 
6.22

>  <document_chembl_id>  (544) 
CHEMBL2346500

$$$$

     RDKit          2D

 30 34  0  0  0  0  0  0  0  0999 V2000
    3.7500   -3.8971    0.0000 N   0  0  0  0  0  0  0  0  0  0  0  0
    3.0000   -5.1962    0.0000 C   0  0  0  0  0  0  0  0  0  0  0  0
    3.7500   -6.4952    0.0000 C   0  0  0  0  0  0  0  0  0  0  0  0
    3.0000   -7.7942    0.0000 C   0  0  0  0  0  0  0  0  0  0  0  0
    3.7500   -9.0933    0.0000 F   0  0  0  0  0  0  0  0  0  0  0  0
    1.5000   -7.7942    0.0000 C   0  0  0  0  0  0  0  0  0  0  0  0
    0.7500   -6.4952    0.0000 C   0  0  0  0  0  0  0  0  0  0  0  0
    1.5000   -5.1962    0.0000 C   0  0  0  0  0  0  0  0  0  0  0  0
    0.7500   -3.8971    0.0000 N   0  0  0  0  0  0  0  0  0  0  0  0
    1.5000   -2.5981    0.0000 C   0  0  0  0  0  0  0  0  0  0  0  0
    3.0000   -2.5981    0.0000 O   0  0  0  0  0  0  0  0  0  0  0  0
    0.7500   -1.2990    0.0000 C   0  0  0  0  0  0  0  0  0  0  0  0
    1.5000    0.0000    0.0000 C   0  0  0  0  0  0  0  0  0  0  0  0
    0.7500    1.2990    0.0000 N   0  0  0  0  0  0  0  0  0  0  0  0
   -0.7500    1.2990    0.0000 C   0  0  0  0  0  0  0  0  0  0  0  0
   -1.5000    2.5981    0.0000 C   0  0  0  0  0  0  0  0  0  0  0  0
   -0.7500    3.8971    0.0000 C   0  0  0  0  0  0  0  0  0  0  0  0
   -0.7500    5.3971    0.0000 C   0  0  0  0  0  0  0  0  0  0  0  0
    0.5490    4.6471    0.0000 C   0  0  0  0  0  0  0  0  0  0  0  0
   -3.0000    2.5981    0.0000 C   0  0  0  0  0  0  0  0  0  0  0  0
   -3.7500    3.8971    0.0000 N   0  0  0  0  0  0  0  0  0  0  0  0
   -3.0000    5.1962    0.0000 C   0  0  0  0  0  0  0  0  0  0  0  0
   -3.7500    6.4952    0.0000 C   0  0  0  0  0  0  0  0  0  0  0  0
   -5.2500    6.4952    0.0000 N   0  0  0  0  0  0  0  0  0  0  0  0
   -6.0000    5.1962    0.0000 C   0  0  0  0  0  0  0  0  0  0  0  0
   -5.2500    3.8971    0.0000 C   0  0  0  0  0  0  0  0  0  0  0  0
   -3.7500    1.2990    0.0000 C   0  0  0  0  0  0  0  0  0  0  0  0
   -3.0000    0.0000    0.0000 C   0  0  0  0  0  0  0  0  0  0  0  0
   -1.5000    0.0000    0.0000 C   0  0  0  0  0  0  0  0  0  0  0  0
   -0.7500   -1.2990    0.0000 C   0  0  0  0  0  0  0  0  0  0  0  0
  1  2  1  0
  2  3  2  0
  3  4  1  0
  4  5  1  0
  4  6  2  0
  6  7  1  0
  7  8  2  0
  8  9  1  0
  9 10  1  0
 10 11  2  0
 10 12  1  0
 12 13  2  0
 13 14  1  0
 14 15  2  0
 15 16  1  0
 16 17  1  0
 17 18  1  0
 18 19  1  0
 16 20  2  0
 20 21  1  0
 21 22  1  0
 22 23  1  0
 23 24  1  0
 24 25  1  0
 25 26  1  0
 20 27  1  0
 27 28  2  0
 28 29  1  0
 29 30  2  0
  8  2  1  0
 30 12  1  0
 29 15  1  0
 19 17  1  0
 26 21  1  0
M  END
>  <molecule_chembl_id>  (545) 
CHEMBL3664029

>  <canonical_smiles>  (545) 
Nc1cc(F)ccc1NC(=O)c1cnc2c(C3CC3)c(N3CCNCC3)ccc2c1

>  <pchembl_value_mean>  (545) 
6.23

>  <document_chembl_id>  (545) 
CHEMBL3639382

$$$$

     RDKit          2D

 19 20  0  0  0  0  0  0  0  0999 V2000
    6.0000    0.0000    0.0000 O   0  0  0  0  0  0  0  0  0  0  0  0
    5.2500   -1.2990    0.0000 C   0  0  0  0  0  0  0  0  0  0  0  0
    3.7500   -1.2990    0.0000 C   0  0  0  0  0  0  0  0  0  0  0  0
    3.0000    0.0000    0.0000 C   0  0  0  0  0  0  0  0  0  0  0  0
    1.5000    0.0000    0.0000 C   0  0  0  0  0  0  0  0  0  0  0  0
    0.7500   -1.2990    0.0000 C   0  0  0  0  0  0  0  0  0  0  0  0
   -0.7500   -1.2990    0.0000 C   0  0  0  0  0  0  0  0  0  0  0  0
   -1.5000    0.0000    0.0000 C   0  0  0  0  0  0  0  0  0  0  0  0
   -3.0000    0.0000    0.0000 C   0  0  0  0  0  0  0  0  0  0  0  0
   -3.7500    1.2990    0.0000 C   0  0  0  0  0  0  0  0  0  0  0  0
   -5.2500    1.2990    0.0000 C   0  0  0  0  0  0  0  0  0  0  0  0
   -6.0000    0.0000    0.0000 C   0  0  0  0  0  0  0  0  0  0  0  0
   -7.5000    0.0000    0.0000 O   0  0  0  0  0  0  0  0  0  0  0  0
   -5.2500   -1.2990    0.0000 C   0  0  0  0  0  0  0  0  0  0  0  0
   -3.7500   -1.2990    0.0000 C   0  0  0  0  0  0  0  0  0  0  0  0
   -0.7500    1.2990    0.0000 C   0  0  0  0  0  0  0  0  0  0  0  0
    0.7500    1.2990    0.0000 C   0  0  0  0  0  0  0  0  0  0  0  0
    6.0000   -2.5981    0.0000 N   0  0  0  0  0  0  0  0  0  0  0  0
    7.5000   -2.5981    0.0000 O   0  0  0  0  0  0  0  0  0  0  0  0
  1  2  2  0
  2  3  1  0
  3  4  2  3
  4  5  1  0
  5  6  2  0
  6  7  1  0
  7  8  2  0
  8  9  1  0
  9 10  2  0
 10 11  1  0
 11 12  2  0
 12 13  1  0
 12 14  1  0
 14 15  2  0
  8 16  1  0
 16 17  2  0
  2 18  1  0
 18 19  1  0
 17  5  1  0
 15  9  1  0
M  END
>  <molecule_chembl_id>  (546) 
CHEMBL556332

>  <canonical_smiles>  (546) 
O=C(C=Cc1ccc(-c2ccc(O)cc2)cc1)NO

>  <pchembl_value_mean>  (546) 
6.23

>  <document_chembl_id>  (546) 
CHEMBL1158371

$$$$

     RDKit          2D

 34 37  0  0  0  0  0  0  0  0999 V2000
   -8.9702   -7.9777    0.0000 O   0  0  0  0  0  0  0  0  0  0  0  0
   -7.8555   -8.9814    0.0000 C   0  0  0  0  0  0  0  0  0  0  0  0
   -6.4289   -8.5179    0.0000 C   0  0  0  0  0  0  0  0  0  0  0  0
   -6.1170   -7.0506    0.0000 C   0  0  0  0  0  0  0  0  0  0  0  0
   -4.6904   -6.5871    0.0000 C   0  0  0  0  0  0  0  0  0  0  0  0
   -4.3786   -5.1199    0.0000 C   0  0  0  0  0  0  0  0  0  0  0  0
   -2.9520   -4.6564    0.0000 C   0  0  0  0  0  0  0  0  0  0  0  0
   -2.6401   -3.1891    0.0000 C   0  0  0  0  0  0  0  0  0  0  0  0
   -1.2135   -2.7256    0.0000 C   0  0  0  0  0  0  0  0  0  0  0  0
   -0.0000   -3.6073    0.0000 C   0  0  0  0  0  0  0  0  0  0  0  0
    1.2135   -2.7256    0.0000 N   0  0  0  0  0  0  0  0  0  0  0  0
    0.7500   -1.2990    0.0000 C   0  0  0  0  0  0  0  0  0  0  0  0
    1.5000    0.0000    0.0000 C   0  0  0  0  0  0  0  0  0  0  0  0
    0.7500    1.2990    0.0000 C   0  0  0  0  0  0  0  0  0  0  0  0
   -0.7500    1.2990    0.0000 C   0  0  0  0  0  0  0  0  0  0  0  0
   -1.5000    2.5981    0.0000 N   0  0  0  0  0  4  0  0  0  0  0  0
   -3.0000    2.5981    0.0000 O   0  0  0  0  0  0  0  0  0  0  0  0
   -0.7500    3.8971    0.0000 O   0  0  0  0  0  1  0  0  0  0  0  0
   -1.5000    0.0000    0.0000 C   0  0  0  0  0  0  0  0  0  0  0  0
   -0.7500   -1.2990    0.0000 C   0  0  0  0  0  0  0  0  0  0  0  0
   -3.7548   -2.1855    0.0000 C   0  0  0  0  0  0  0  0  0  0  0  0
   -3.5980   -0.6937    0.0000 C   0  0  0  0  0  0  0  0  0  0  0  0
   -4.9684   -0.0836    0.0000 N   0  0  0  0  0  0  0  0  0  0  0  0
   -5.9720   -1.1983    0.0000 C   0  0  0  0  0  0  0  0  0  0  0  0
   -7.4720   -1.1983    0.0000 C   0  0  0  0  0  0  0  0  0  0  0  0
   -8.2220   -2.4973    0.0000 C   0  0  0  0  0  0  0  0  0  0  0  0
   -7.4720   -3.7964    0.0000 C   0  0  0  0  0  0  0  0  0  0  0  0
   -8.2220   -5.0954    0.0000 N   0  0  0  0  0  4  0  0  0  0  0  0
   -7.4720   -6.3944    0.0000 O   0  0  0  0  0  0  0  0  0  0  0  0
   -9.7220   -5.0954    0.0000 O   0  0  0  0  0  1  0  0  0  0  0  0
   -5.9720   -3.7964    0.0000 C   0  0  0  0  0  0  0  0  0  0  0  0
   -5.2220   -2.4973    0.0000 C   0  0  0  0  0  0  0  0  0  0  0  0
   -8.1673  -10.4486    0.0000 N   0  0  0  0  0  0  0  0  0  0  0  0
   -9.5939  -10.9121    0.0000 O   0  0  0  0  0  0  0  0  0  0  0  0
  1  2  2  0
  2  3  1  0
  3  4  1  0
  4  5  1  0
  5  6  1  0
  6  7  1  0
  7  8  1  0
  8  9  1  0
  9 10  2  0
 10 11  1  0
 11 12  1  0
 12 13  2  0
 13 14  1  0
 14 15  2  0
 15 16  1  0
 16 17  2  0
 16 18  1  0
 15 19  1  0
 19 20  2  0
  8 21  1  0
 21 22  2  0
 22 23  1  0
 23 24  1  0
 24 25  2  0
 25 26  1  0
 26 27  2  0
 27 28  1  0
 28 29  2  0
 28 30  1  0
 27 31  1  0
 31 32  2  0
  2 33  1  0
 33 34  1  0
 20  9  1  0
 32 21  1  0
 20 12  1  0
 32 24  1  0
M  CHG  4  16   1  18  -1  28   1  30  -1
M  END
>  <molecule_chembl_id>  (547) 
CHEMBL561604

>  <canonical_smiles>  (547) 
O=C(CCCCCC(c1c[nH]c2ccc([N+](=O)[O-])cc12)c1c[nH]c2ccc([N+](=O)[O-])cc12)NO

>  <pchembl_value_mean>  (547) 
6.23

>  <document_chembl_id>  (547) 
CHEMBL1153591

$$$$

     RDKit          2D

 20 20  0  0  0  0  0  0  0  0999 V2000
    3.0000    0.0000    0.0000 C   0  0  0  0  0  0  0  0  0  0  0  0
    1.5000    0.0000    0.0000 C   0  0  0  0  0  0  0  0  0  0  0  0
    0.7500   -1.2990    0.0000 C   0  0  0  0  0  0  0  0  0  0  0  0
   -0.7500   -1.2990    0.0000 C   0  0  0  0  0  0  0  0  0  0  0  0
   -1.5000    0.0000    0.0000 C   0  0  0  0  0  0  0  0  0  0  0  0
   -3.0000    0.0000    0.0000 N   0  0  0  0  0  0  0  0  0  0  0  0
   -3.7500    1.2990    0.0000 C   0  0  0  0  0  0  0  0  0  0  0  0
   -3.0000    2.5981    0.0000 O   0  0  0  0  0  0  0  0  0  0  0  0
   -5.2500    1.2990    0.0000 C   0  0  0  0  0  0  0  0  0  0  0  0
   -6.0000    2.5981    0.0000 C   0  0  0  0  0  0  0  0  0  0  0  0
   -7.5000    2.5981    0.0000 C   0  0  0  0  0  0  0  0  0  0  0  0
   -8.2500    3.8971    0.0000 C   0  0  0  0  0  0  0  0  0  0  0  0
   -9.7500    3.8971    0.0000 C   0  0  0  0  0  0  0  0  0  0  0  0
  -10.5000    5.1962    0.0000 C   0  0  0  0  0  0  0  0  0  0  0  0
  -12.0000    5.1962    0.0000 C   0  0  0  0  0  0  0  0  0  0  0  0
  -12.7500    3.8971    0.0000 O   0  0  0  0  0  0  0  0  0  0  0  0
  -12.7500    6.4952    0.0000 N   0  0  0  0  0  0  0  0  0  0  0  0
  -14.2500    6.4952    0.0000 O   0  0  0  0  0  0  0  0  0  0  0  0
   -0.7500    1.2990    0.0000 C   0  0  0  0  0  0  0  0  0  0  0  0
    0.7500    1.2990    0.0000 C   0  0  0  0  0  0  0  0  0  0  0  0
  1  2  1  0
  2  3  2  0
  3  4  1  0
  4  5  2  0
  5  6  1  0
  6  7  1  0
  7  8  2  0
  7  9  1  0
  9 10  1  0
 10 11  1  0
 11 12  1  0
 12 13  1  0
 13 14  1  0
 14 15  1  0
 15 16  2  0
 15 17  1  0
 17 18  1  0
  5 19  1  0
 19 20  2  0
 20  2  1  0
M  END
>  <molecule_chembl_id>  (548) 
CHEMBL3098605

>  <canonical_smiles>  (548) 
Cc1ccc(NC(=O)CCCCCCC(=O)NO)cc1

>  <pchembl_value_mean>  (548) 
6.23

>  <document_chembl_id>  (548) 
CHEMBL3098008

$$$$

     RDKit          2D

 24 26  0  0  0  0  0  0  0  0999 V2000
    3.7500    1.2990    0.0000 O   0  0  0  0  0  0  0  0  0  0  0  0
    3.0000    0.0000    0.0000 C   0  0  0  0  0  0  0  0  0  0  0  0
    3.7500   -1.2990    0.0000 N   0  0  0  0  0  0  0  0  0  0  0  0
    5.2500   -1.2990    0.0000 O   0  0  0  0  0  0  0  0  0  0  0  0
    1.5000    0.0000    0.0000 C   0  0  0  0  0  0  0  0  0  0  0  0
    0.7500   -1.2990    0.0000 C   0  0  0  0  0  0  0  0  0  0  0  0
   -0.7500   -1.2990    0.0000 N   0  0  0  0  0  0  0  0  0  0  0  0
   -1.5000    0.0000    0.0000 C   0  0  0  0  0  0  0  0  0  0  0  0
   -3.0000    0.0000    0.0000 N   0  0  0  0  0  0  0  0  0  0  0  0
   -3.7500    1.2990    0.0000 C   0  0  0  0  0  0  0  0  0  0  0  0
   -5.2500    1.2990    0.0000 C   0  0  0  0  0  0  0  0  0  0  0  0
   -6.0000    2.5981    0.0000 C   0  0  0  0  0  0  0  0  0  0  0  0
   -7.5000    2.5981    0.0000 C   0  0  0  0  0  0  0  0  0  0  0  0
   -8.2500    1.2990    0.0000 C   0  0  0  0  0  0  0  0  0  0  0  0
   -7.5000    0.0000    0.0000 C   0  0  0  0  0  0  0  0  0  0  0  0
   -6.0000    0.0000    0.0000 C   0  0  0  0  0  0  0  0  0  0  0  0
   -5.2500   -1.2990    0.0000 C   0  0  0  0  0  0  0  0  0  0  0  0
   -6.0000   -2.5981    0.0000 C   0  0  0  0  0  0  0  0  0  0  0  0
   -5.2500   -3.8971    0.0000 C   0  0  0  0  0  0  0  0  0  0  0  0
   -3.7500   -3.8971    0.0000 C   0  0  0  0  0  0  0  0  0  0  0  0
   -3.0000   -2.5981    0.0000 C   0  0  0  0  0  0  0  0  0  0  0  0
   -3.7500   -1.2990    0.0000 C   0  0  0  0  0  0  0  0  0  0  0  0
   -0.7500    1.2990    0.0000 N   0  0  0  0  0  0  0  0  0  0  0  0
    0.7500    1.2990    0.0000 C   0  0  0  0  0  0  0  0  0  0  0  0
  1  2  2  0
  2  3  1  0
  3  4  1  0
  2  5  1  0
  5  6  2  0
  6  7  1  0
  7  8  2  0
  8  9  1  0
  9 10  1  0
 10 11  1  0
 11 12  2  0
 12 13  1  0
 13 14  2  0
 14 15  1  0
 15 16  2  0
 16 17  1  0
 17 18  2  0
 18 19  1  0
 19 20  2  0
 20 21  1  0
 21 22  2  0
  8 23  1  0
 23 24  2  0
 24  5  1  0
 16 11  1  0
 22 17  1  0
M  END
>  <molecule_chembl_id>  (549) 
CHEMBL3655938

>  <canonical_smiles>  (549) 
O=C(NO)c1cnc(NCc2ccccc2-c2ccccc2)nc1

>  <pchembl_value_mean>  (549) 
6.23

>  <document_chembl_id>  (549) 
CHEMBL3639071

$$$$

     RDKit          2D

 30 33  0  0  0  0  0  0  0  0999 V2000
   -7.7942  -12.6073    0.0000 N   0  0  0  0  0  0  0  0  0  0  0  0
   -9.0933  -11.8573    0.0000 C   0  0  0  0  0  0  0  0  0  0  0  0
  -10.3923  -12.6073    0.0000 C   0  0  0  0  0  0  0  0  0  0  0  0
  -11.6913  -11.8573    0.0000 C   0  0  0  0  0  0  0  0  0  0  0  0
  -11.6913  -10.3573    0.0000 C   0  0  0  0  0  0  0  0  0  0  0  0
  -12.9904   -9.6073    0.0000 F   0  0  0  0  0  0  0  0  0  0  0  0
  -10.3923   -9.6073    0.0000 C   0  0  0  0  0  0  0  0  0  0  0  0
   -9.0933  -10.3573    0.0000 C   0  0  0  0  0  0  0  0  0  0  0  0
   -7.7942   -9.6073    0.0000 N   0  0  0  0  0  0  0  0  0  0  0  0
   -6.4952  -10.3573    0.0000 C   0  0  0  0  0  0  0  0  0  0  0  0
   -6.4952  -11.8573    0.0000 O   0  0  0  0  0  0  0  0  0  0  0  0
   -5.1962   -9.6073    0.0000 C   0  0  0  0  0  0  0  0  0  0  0  0
   -3.8971  -10.3573    0.0000 C   0  0  0  0  0  0  0  0  0  0  0  0
   -2.5981   -9.6073    0.0000 C   0  0  0  0  0  0  0  0  0  0  0  0
   -2.5981   -8.1073    0.0000 C   0  0  0  0  0  0  0  0  0  0  0  0
   -1.2990   -7.3573    0.0000 C   0  0  0  0  0  0  0  0  0  0  0  0
   -1.2990   -5.8573    0.0000 N   0  0  0  0  0  0  0  0  0  0  0  0
   -0.0000   -5.1073    0.0000 C   0  0  0  0  0  0  0  0  0  0  0  0
    1.2990   -5.8573    0.0000 O   0  0  0  0  0  0  0  0  0  0  0  0
   -0.0000   -3.6073    0.0000 C   0  0  0  0  0  0  0  0  0  0  0  0
    1.2135   -2.7256    0.0000 C   0  0  0  0  0  0  0  0  0  0  0  0
    0.7500   -1.2990    0.0000 C   0  0  0  0  0  0  0  0  0  0  0  0
    1.5000    0.0000    0.0000 C   0  0  0  0  0  0  0  0  0  0  0  0
    0.7500    1.2990    0.0000 C   0  0  0  0  0  0  0  0  0  0  0  0
   -0.7500    1.2990    0.0000 C   0  0  0  0  0  0  0  0  0  0  0  0
   -1.5000    0.0000    0.0000 C   0  0  0  0  0  0  0  0  0  0  0  0
   -0.7500   -1.2990    0.0000 C   0  0  0  0  0  0  0  0  0  0  0  0
   -1.2135   -2.7256    0.0000 S   0  0  0  0  0  0  0  0  0  0  0  0
   -3.8971   -7.3573    0.0000 C   0  0  0  0  0  0  0  0  0  0  0  0
   -5.1962   -8.1073    0.0000 C   0  0  0  0  0  0  0  0  0  0  0  0
  1  2  1  0
  2  3  2  0
  3  4  1  0
  4  5  2  0
  5  6  1  0
  5  7  1  0
  7  8  2  0
  8  9  1  0
  9 10  1  0
 10 11  2  0
 10 12  1  0
 12 13  2  0
 13 14  1  0
 14 15  2  0
 15 16  1  0
 16 17  1  0
 17 18  1  0
 18 19  2  0
 18 20  1  0
 20 21  2  0
 21 22  1  0
 22 23  2  0
 23 24  1  0
 24 25  2  0
 25 26  1  0
 26 27  2  0
 27 28  1  0
 15 29  1  0
 29 30  2  0
  8  2  1  0
 30 12  1  0
 28 20  1  0
 27 22  1  0
M  END
>  <molecule_chembl_id>  (550) 
CHEMBL3673114

>  <canonical_smiles>  (550) 
Nc1ccc(F)cc1NC(=O)c1ccc(CNC(=O)c2cc3ccccc3s2)cc1

>  <pchembl_value_mean>  (550) 
6.235

>  <document_chembl_id>  (550) 
CHEMBL3638911

$$$$

     RDKit          2D

 30 33  0  0  0  0  0  0  0  0999 V2000
    3.0000    0.0000    0.0000 N   0  0  0  0  0  0  0  0  0  0  0  0
    1.5000    0.0000    0.0000 C   0  0  0  0  0  0  0  0  0  0  0  0
    0.7500   -1.2990    0.0000 C   0  0  0  0  0  0  0  0  0  0  0  0
   -0.7500   -1.2990    0.0000 C   0  0  0  0  0  0  0  0  0  0  0  0
   -1.5000    0.0000    0.0000 C   0  0  0  0  0  0  0  0  0  0  0  0
   -0.7500    1.2990    0.0000 C   0  0  0  0  0  0  0  0  0  0  0  0
    0.7500    1.2990    0.0000 C   0  0  0  0  0  0  0  0  0  0  0  0
    1.5000    2.5981    0.0000 N   0  0  0  0  0  0  0  0  0  0  0  0
    0.7500    3.8971    0.0000 C   0  0  0  0  0  0  0  0  0  0  0  0
   -0.7500    3.8971    0.0000 O   0  0  0  0  0  0  0  0  0  0  0  0
    1.5000    5.1962    0.0000 C   0  0  0  0  0  0  0  0  0  0  0  0
    3.0000    5.1962    0.0000 C   0  0  0  0  0  0  0  0  0  0  0  0
    3.7500    6.4952    0.0000 C   0  0  0  0  0  0  0  0  0  0  0  0
    3.0000    7.7942    0.0000 C   0  0  0  0  0  0  0  0  0  0  0  0
    3.7500    9.0933    0.0000 C   0  0  0  0  0  0  0  0  0  0  0  0
    5.2500    9.0933    0.0000 S   0  0  0  0  0  0  0  0  0  0  0  0
    6.0000   10.3923    0.0000 C   0  0  0  0  0  0  0  0  0  0  0  0
    5.3899   11.7626    0.0000 N   0  0  0  0  0  0  0  0  0  0  0  0
    6.5046   12.7663    0.0000 C   0  0  0  0  0  0  0  0  0  0  0  0
    6.3478   14.2581    0.0000 C   0  0  0  0  0  0  0  0  0  0  0  0
    7.5613   15.1398    0.0000 C   0  0  0  0  0  0  0  0  0  0  0  0
    8.9317   14.5297    0.0000 C   0  0  0  0  0  0  0  0  0  0  0  0
   10.1452   15.4114    0.0000 C   0  0  0  0  0  0  0  0  0  0  0  0
    9.9884   16.9031    0.0000 C   0  0  0  0  0  0  0  0  0  0  0  0
    8.6181   17.5132    0.0000 C   0  0  0  0  0  0  0  0  0  0  0  0
    7.4046   16.6316    0.0000 C   0  0  0  0  0  0  0  0  0  0  0  0
    7.8037   12.0163    0.0000 C   0  0  0  0  0  0  0  0  0  0  0  0
    7.4918   10.5491    0.0000 S   0  0  0  0  0  0  0  0  0  0  0  0
    1.5000    7.7942    0.0000 C   0  0  0  0  0  0  0  0  0  0  0  0
    0.7500    6.4952    0.0000 C   0  0  0  0  0  0  0  0  0  0  0  0
  1  2  1  0
  2  3  2  0
  3  4  1  0
  4  5  2  0
  5  6  1  0
  6  7  2  0
  7  8  1  0
  8  9  1  0
  9 10  2  0
  9 11  1  0
 11 12  2  0
 12 13  1  0
 13 14  2  0
 14 15  1  0
 15 16  1  0
 16 17  1  0
 17 18  2  0
 18 19  1  0
 19 20  1  0
 20 21  1  0
 21 22  2  0
 22 23  1  0
 23 24  2  0
 24 25  1  0
 25 26  2  0
 19 27  1  0
 27 28  1  0
 14 29  1  0
 29 30  2  0
  7  2  1  0
 30 11  1  0
 28 17  1  0
 26 21  1  0
M  END
>  <molecule_chembl_id>  (551) 
CHEMBL2407738

>  <canonical_smiles>  (551) 
Nc1ccccc1NC(=O)c1ccc(CSC2=NC(Cc3ccccc3)CS2)cc1

>  <pchembl_value_mean>  (551) 
6.24

>  <document_chembl_id>  (551) 
CHEMBL2407081

$$$$

     RDKit          2D

 25 27  0  0  0  0  0  0  0  0999 V2000
    3.0000    0.0000    0.0000 N   0  0  0  0  0  0  0  0  0  0  0  0
    1.5000    0.0000    0.0000 C   0  0  0  0  0  0  0  0  0  0  0  0
    0.7500   -1.2990    0.0000 C   0  0  0  0  0  0  0  0  0  0  0  0
   -0.7500   -1.2990    0.0000 C   0  0  0  0  0  0  0  0  0  0  0  0
   -1.5000    0.0000    0.0000 C   0  0  0  0  0  0  0  0  0  0  0  0
   -0.7500    1.2990    0.0000 C   0  0  0  0  0  0  0  0  0  0  0  0
    0.7500    1.2990    0.0000 C   0  0  0  0  0  0  0  0  0  0  0  0
    1.5000    2.5981    0.0000 N   0  0  0  0  0  0  0  0  0  0  0  0
    0.7500    3.8971    0.0000 C   0  0  0  0  0  0  0  0  0  0  0  0
   -0.7500    3.8971    0.0000 O   0  0  0  0  0  0  0  0  0  0  0  0
    1.5000    5.1962    0.0000 C   0  0  0  0  0  0  0  0  0  0  0  0
    3.0000    5.1962    0.0000 C   0  0  0  0  0  0  0  0  0  0  0  0
    3.7500    6.4952    0.0000 C   0  0  0  0  0  0  0  0  0  0  0  0
    3.0000    7.7942    0.0000 C   0  0  0  0  0  0  0  0  0  0  0  0
    3.7500    9.0933    0.0000 C   0  0  0  0  0  0  0  0  0  0  0  0
    5.2500    9.0933    0.0000 O   0  0  0  0  0  0  0  0  0  0  0  0
    6.0000   10.3923    0.0000 C   0  0  0  0  0  0  0  0  0  0  0  0
    7.5000   10.3923    0.0000 C   0  0  0  0  0  0  0  0  0  0  0  0
    8.2500   11.6913    0.0000 C   0  0  0  0  0  0  0  0  0  0  0  0
    7.5000   12.9904    0.0000 C   0  0  0  0  0  0  0  0  0  0  0  0
    8.2500   14.2894    0.0000 F   0  0  0  0  0  0  0  0  0  0  0  0
    6.0000   12.9904    0.0000 C   0  0  0  0  0  0  0  0  0  0  0  0
    5.2500   11.6913    0.0000 C   0  0  0  0  0  0  0  0  0  0  0  0
    1.5000    7.7942    0.0000 C   0  0  0  0  0  0  0  0  0  0  0  0
    0.7500    6.4952    0.0000 C   0  0  0  0  0  0  0  0  0  0  0  0
  1  2  1  0
  2  3  2  0
  3  4  1  0
  4  5  2  0
  5  6  1  0
  6  7  2  0
  7  8  1  0
  8  9  1  0
  9 10  2  0
  9 11  1  0
 11 12  2  0
 12 13  1  0
 13 14  2  0
 14 15  1  0
 15 16  1  0
 16 17  1  0
 17 18  2  0
 18 19  1  0
 19 20  2  0
 20 21  1  0
 20 22  1  0
 22 23  2  0
 14 24  1  0
 24 25  2  0
  7  2  1  0
 25 11  1  0
 23 17  1  0
M  END
>  <molecule_chembl_id>  (552) 
CHEMBL4091348

>  <canonical_smiles>  (552) 
Nc1ccccc1NC(=O)c1ccc(COc2ccc(F)cc2)cc1

>  <pchembl_value_mean>  (552) 
6.24

>  <document_chembl_id>  (552) 
CHEMBL4020706

$$$$

     RDKit          2D

 29 30  0  0  0  0  0  0  0  0999 V2000
    8.2500   -3.8971    0.0000 C   0  0  0  0  0  0  0  0  0  0  0  0
    7.5000   -2.5981    0.0000 C   0  0  0  0  0  0  0  0  0  0  0  0
    6.0000   -2.5981    0.0000 C   0  0  0  0  0  0  0  0  0  0  0  0
    5.2500   -1.2990    0.0000 N   0  0  0  0  0  0  0  0  0  0  0  0
    3.7500   -1.2990    0.0000 N   0  0  0  0  0  0  0  0  0  0  0  0
    3.0000    0.0000    0.0000 C   0  0  0  0  0  0  0  0  0  0  0  0
    3.7500    1.2990    0.0000 O   0  0  0  0  0  0  0  0  0  0  0  0
    1.5000    0.0000    0.0000 C   0  0  0  0  0  0  0  0  0  0  0  0
    0.7500   -1.2990    0.0000 C   0  0  0  0  0  0  0  0  0  0  0  0
   -0.7500   -1.2990    0.0000 C   0  0  0  0  0  0  0  0  0  0  0  0
   -1.5000    0.0000    0.0000 C   0  0  0  0  0  0  0  0  0  0  0  0
   -3.0000    0.0000    0.0000 C   0  0  0  0  0  0  0  0  0  0  0  0
   -3.7500    1.2990    0.0000 N   0  0  0  0  0  0  0  0  0  0  0  0
   -5.2500    1.2990    0.0000 C   0  0  0  0  0  0  0  0  0  0  0  0
   -6.0000    2.5981    0.0000 C   0  0  0  0  0  0  0  0  0  0  0  0
   -5.2500    3.8971    0.0000 C   0  0  0  0  0  0  0  0  0  0  0  0
   -6.0000    5.1962    0.0000 C   0  0  0  0  0  0  0  0  0  0  0  0
   -7.5000    5.1962    0.0000 C   0  0  0  0  0  0  0  0  0  0  0  0
   -8.2500    3.8971    0.0000 C   0  0  0  0  0  0  0  0  0  0  0  0
   -7.5000    2.5981    0.0000 C   0  0  0  0  0  0  0  0  0  0  0  0
   -3.0000    2.5981    0.0000 C   0  0  0  0  0  0  0  0  0  0  0  0
   -1.5000    2.5981    0.0000 O   0  0  0  0  0  0  0  0  0  0  0  0
   -3.7500    3.8971    0.0000 O   0  0  0  0  0  0  0  0  0  0  0  0
   -3.0000    5.1962    0.0000 C   0  0  0  0  0  0  0  0  0  0  0  0
   -4.2990    5.9462    0.0000 C   0  0  0  0  0  0  0  0  0  0  0  0
   -1.7010    4.4462    0.0000 C   0  0  0  0  0  0  0  0  0  0  0  0
   -2.2500    6.4952    0.0000 C   0  0  0  0  0  0  0  0  0  0  0  0
   -0.7500    1.2990    0.0000 C   0  0  0  0  0  0  0  0  0  0  0  0
    0.7500    1.2990    0.0000 C   0  0  0  0  0  0  0  0  0  0  0  0
  1  2  1  0
  2  3  1  0
  3  4  1  0
  4  5  1  0
  5  6  1  0
  6  7  2  0
  6  8  1  0
  8  9  2  0
  9 10  1  0
 10 11  2  0
 11 12  1  0
 12 13  1  0
 13 14  1  0
 14 15  1  0
 15 16  2  0
 16 17  1  0
 17 18  2  0
 18 19  1  0
 19 20  2  0
 13 21  1  0
 21 22  2  0
 21 23  1  0
 23 24  1  0
 24 25  1  0
 24 26  1  0
 24 27  1  0
 11 28  1  0
 28 29  2  0
 29  8  1  0
 20 15  1  0
M  END
>  <molecule_chembl_id>  (553) 
CHEMBL4558922

>  <canonical_smiles>  (553) 
CCCNNC(=O)c1ccc(CN(Cc2ccccc2)C(=O)OC(C)(C)C)cc1

>  <pchembl_value_mean>  (553) 
6.24

>  <document_chembl_id>  (553) 
CHEMBL4342521

$$$$

     RDKit          2D

 30 33  0  0  0  0  0  0  0  0999 V2000
   -3.0000   -7.7942    0.0000 C   0  0  0  0  0  0  0  0  0  0  0  0
   -1.5000   -7.7942    0.0000 O   0  0  0  0  0  0  0  0  0  0  0  0
   -0.7500   -6.4952    0.0000 C   0  0  0  0  0  0  0  0  0  0  0  0
   -1.5000   -5.1962    0.0000 C   0  0  0  0  0  0  0  0  0  0  0  0
   -0.7500   -3.8971    0.0000 C   0  0  0  0  0  0  0  0  0  0  0  0
    0.7500   -3.8971    0.0000 C   0  0  0  0  0  0  0  0  0  0  0  0
    1.5000   -2.5981    0.0000 C   0  0  0  0  0  0  0  0  0  0  0  0
    3.0000   -2.5981    0.0000 O   0  0  0  0  0  0  0  0  0  0  0  0
    0.7500   -1.2990    0.0000 C   0  0  0  0  0  0  0  0  0  0  0  0
    1.5000    0.0000    0.0000 C   0  0  0  0  0  0  0  0  0  0  0  0
    0.7500    1.2990    0.0000 C   0  0  0  0  0  0  0  0  0  0  0  0
   -0.7500    1.2990    0.0000 C   0  0  0  0  0  0  0  0  0  0  0  0
   -1.5000    0.0000    0.0000 C   0  0  0  0  0  0  0  0  0  0  0  0
   -2.9672    0.3119    0.0000 C   0  0  0  0  0  0  0  0  0  0  0  0
   -3.1240    1.8037    0.0000 C   0  0  0  0  0  0  0  0  0  0  0  0
   -1.7537    2.4138    0.0000 N   0  0  0  0  0  0  0  0  0  0  0  0
   -1.4418    3.8810    0.0000 C   0  0  0  0  0  0  0  0  0  0  0  0
   -2.5565    4.8847    0.0000 C   0  0  0  0  0  0  0  0  0  0  0  0
   -2.2447    6.3519    0.0000 C   0  0  0  0  0  0  0  0  0  0  0  0
   -3.3594    7.3556    0.0000 C   0  0  0  0  0  0  0  0  0  0  0  0
   -4.7860    6.8921    0.0000 C   0  0  0  0  0  0  0  0  0  0  0  0
   -5.9007    7.8958    0.0000 C   0  0  0  0  0  0  0  0  0  0  0  0
   -7.3273    7.4322    0.0000 O   0  0  0  0  0  0  0  0  0  0  0  0
   -5.5888    9.3630    0.0000 N   0  0  0  0  0  0  0  0  0  0  0  0
   -6.7035   10.3667    0.0000 O   0  0  0  0  0  0  0  0  0  0  0  0
   -5.0978    5.4248    0.0000 C   0  0  0  0  0  0  0  0  0  0  0  0
   -3.9831    4.4211    0.0000 C   0  0  0  0  0  0  0  0  0  0  0  0
   -0.7500   -1.2990    0.0000 C   0  0  0  0  0  0  0  0  0  0  0  0
    1.5000   -5.1962    0.0000 C   0  0  0  0  0  0  0  0  0  0  0  0
    0.7500   -6.4952    0.0000 C   0  0  0  0  0  0  0  0  0  0  0  0
  1  2  1  0
  2  3  1  0
  3  4  2  0
  4  5  1  0
  5  6  2  0
  6  7  1  0
  7  8  2  0
  7  9  1  0
  9 10  2  0
 10 11  1  0
 11 12  2  0
 12 13  1  0
 13 14  1  0
 14 15  2  0
 15 16  1  0
 16 17  1  0
 17 18  1  0
 18 19  2  0
 19 20  1  0
 20 21  2  0
 21 22  1  0
 22 23  2  0
 22 24  1  0
 24 25  1  0
 21 26  1  0
 26 27  2  0
 13 28  2  0
  6 29  1  0
 29 30  2  0
 30  3  1  0
 28  9  1  0
 16 12  1  0
 27 18  1  0
M  END
>  <molecule_chembl_id>  (554) 
CHEMBL4218266

>  <canonical_smiles>  (554) 
COc1ccc(C(=O)c2ccc3c(ccn3Cc3ccc(C(=O)NO)cc3)c2)cc1

>  <pchembl_value_mean>  (554) 
6.25

>  <document_chembl_id>  (554) 
CHEMBL4196108

$$$$

     RDKit          2D

 31 34  0  0  0  0  0  0  0  0999 V2000
    3.0000    0.0000    0.0000 C   0  0  0  0  0  0  0  0  0  0  0  0
    1.5000    0.0000    0.0000 C   0  0  0  0  0  0  0  0  0  0  0  0
    0.7500   -1.2990    0.0000 C   0  0  0  0  0  0  0  0  0  0  0  0
   -0.7500   -1.2990    0.0000 C   0  0  0  0  0  0  0  0  0  0  0  0
   -1.5000    0.0000    0.0000 C   0  0  0  0  0  0  0  0  0  0  0  0
   -3.0000    0.0000    0.0000 C   0  0  0  0  0  0  0  0  0  0  0  0
   -3.8817   -1.2135    0.0000 N   0  0  0  0  0  0  0  0  0  0  0  0
   -5.3083   -0.7500    0.0000 O   0  0  0  0  0  0  0  0  0  0  0  0
   -5.3083    0.7500    0.0000 C   0  0  0  0  0  0  0  0  0  0  0  0
   -6.5218    1.6317    0.0000 C   0  0  0  0  0  0  0  0  0  0  0  0
   -6.3650    3.1235    0.0000 N   0  0  0  0  0  0  0  0  0  0  0  0
   -7.5785    4.0051    0.0000 C   0  0  0  0  0  0  0  0  0  0  0  0
   -7.4217    5.4969    0.0000 C   0  0  0  0  0  0  0  0  0  0  0  0
   -6.0514    6.1070    0.0000 C   0  0  0  0  0  0  0  0  0  0  0  0
   -5.8946    7.5988    0.0000 C   0  0  0  0  0  0  0  0  0  0  0  0
   -7.1081    8.4805    0.0000 C   0  0  0  0  0  0  0  0  0  0  0  0
   -6.9514    9.9723    0.0000 C   0  0  0  0  0  0  0  0  0  0  0  0
   -8.1649   10.8539    0.0000 O   0  0  0  0  0  0  0  0  0  0  0  0
   -5.5810   10.5824    0.0000 N   0  0  0  0  0  0  0  0  0  0  0  0
   -5.4242   12.0742    0.0000 C   0  0  0  0  0  0  0  0  0  0  0  0
   -4.0539   12.6843    0.0000 C   0  0  0  0  0  0  0  0  0  0  0  0
   -3.8971   14.1760    0.0000 C   0  0  0  0  0  0  0  0  0  0  0  0
   -5.1107   15.0577    0.0000 C   0  0  0  0  0  0  0  0  0  0  0  0
   -6.4810   14.4476    0.0000 C   0  0  0  0  0  0  0  0  0  0  0  0
   -6.6378   12.9558    0.0000 C   0  0  0  0  0  0  0  0  0  0  0  0
   -8.0081   12.3457    0.0000 N   0  0  0  0  0  0  0  0  0  0  0  0
   -8.4785    7.8704    0.0000 C   0  0  0  0  0  0  0  0  0  0  0  0
   -8.6353    6.3786    0.0000 C   0  0  0  0  0  0  0  0  0  0  0  0
   -3.8817    1.2135    0.0000 N   0  0  0  0  0  0  0  0  0  0  0  0
   -0.7500    1.2990    0.0000 C   0  0  0  0  0  0  0  0  0  0  0  0
    0.7500    1.2990    0.0000 C   0  0  0  0  0  0  0  0  0  0  0  0
  1  2  1  0
  2  3  2  0
  3  4  1  0
  4  5  2  0
  5  6  1  0
  6  7  2  0
  7  8  1  0
  8  9  1  0
  9 10  1  0
 10 11  1  0
 11 12  1  0
 12 13  1  0
 13 14  2  0
 14 15  1  0
 15 16  2  0
 16 17  1  0
 17 18  2  0
 17 19  1  0
 19 20  1  0
 20 21  2  0
 21 22  1  0
 22 23  2  0
 23 24  1  0
 24 25  2  0
 25 26  1  0
 16 27  1  0
 27 28  2  0
  9 29  2  0
  5 30  1  0
 30 31  2  0
 31  2  1  0
 29  6  1  0
 28 13  1  0
 25 20  1  0
M  END
>  <molecule_chembl_id>  (555) 
CHEMBL3421738

>  <canonical_smiles>  (555) 
Cc1ccc(-c2noc(CNCc3ccc(C(=O)Nc4ccccc4N)cc3)n2)cc1

>  <pchembl_value_mean>  (555) 
6.25

>  <document_chembl_id>  (555) 
CHEMBL3421568

$$$$

     RDKit          2D

 22 24  0  0  0  0  0  0  0  0999 V2000
   -1.5000   -5.1962    0.0000 O   0  0  0  0  0  0  0  0  0  0  0  0
   -0.7500   -3.8971    0.0000 C   0  0  0  0  0  0  0  0  0  0  0  0
    0.7500   -3.8971    0.0000 C   0  0  0  0  0  0  0  0  0  0  0  0
    1.5000   -2.5981    0.0000 N   0  0  0  0  0  0  0  0  0  0  0  0
    3.0000   -2.5981    0.0000 C   0  0  0  0  0  0  0  0  0  0  0  0
    3.7500   -3.8971    0.0000 C   0  0  0  0  0  0  0  0  0  0  0  0
    3.0000   -5.1962    0.0000 C   0  0  0  0  0  0  0  0  0  0  0  0
    3.7500   -6.4952    0.0000 C   0  0  0  0  0  0  0  0  0  0  0  0
    5.2500   -6.4952    0.0000 C   0  0  0  0  0  0  0  0  0  0  0  0
    6.0000   -7.7942    0.0000 C   0  0  0  0  0  0  0  0  0  0  0  0
    7.5000   -7.7942    0.0000 O   0  0  0  0  0  0  0  0  0  0  0  0
    5.2500   -9.0933    0.0000 N   0  0  0  0  0  0  0  0  0  0  0  0
    6.0000  -10.3923    0.0000 O   0  0  0  0  0  0  0  0  0  0  0  0
    6.0000   -5.1962    0.0000 C   0  0  0  0  0  0  0  0  0  0  0  0
    5.2500   -3.8971    0.0000 C   0  0  0  0  0  0  0  0  0  0  0  0
    0.7500   -1.2990    0.0000 C   0  0  0  0  0  0  0  0  0  0  0  0
    1.5000    0.0000    0.0000 C   0  0  0  0  0  0  0  0  0  0  0  0
    0.7500    1.2990    0.0000 C   0  0  0  0  0  0  0  0  0  0  0  0
   -0.7500    1.2990    0.0000 C   0  0  0  0  0  0  0  0  0  0  0  0
   -1.5000    0.0000    0.0000 C   0  0  0  0  0  0  0  0  0  0  0  0
   -0.7500   -1.2990    0.0000 C   0  0  0  0  0  0  0  0  0  0  0  0
   -1.5000   -2.5981    0.0000 N   0  0  0  0  0  0  0  0  0  0  0  0
  1  2  2  0
  2  3  1  0
  3  4  1  0
  4  5  1  0
  5  6  1  0
  6  7  2  0
  7  8  1  0
  8  9  2  0
  9 10  1  0
 10 11  2  0
 10 12  1  0
 12 13  1  0
  9 14  1  0
 14 15  2  0
  4 16  1  0
 16 17  2  0
 17 18  1  0
 18 19  2  0
 19 20  1  0
 20 21  2  0
 21 22  1  0
 22  2  1  0
 15  6  1  0
 21 16  1  0
M  END
>  <molecule_chembl_id>  (556) 
CHEMBL481802

>  <canonical_smiles>  (556) 
O=C1CN(Cc2ccc(C(=O)NO)cc2)c2ccccc2N1

>  <pchembl_value_mean>  (556) 
6.25

>  <document_chembl_id>  (556) 
CHEMBL1143301

$$$$

     RDKit          2D

 25 27  0  0  0  0  0  0  0  0999 V2000
   -1.5000  -12.9904    0.0000 O   0  0  0  0  0  0  0  0  0  0  0  0
   -3.0000  -12.9904    0.0000 C   0  0  0  0  0  0  0  0  0  0  0  0
   -3.7500  -11.6913    0.0000 C   0  0  0  0  0  0  0  0  0  0  0  0
   -3.0000  -10.3923    0.0000 C   0  0  0  0  0  0  0  0  0  0  0  0
   -3.7500   -9.0933    0.0000 C   0  0  0  0  0  0  0  0  0  0  0  0
   -5.2500   -9.0933    0.0000 C   0  0  0  0  0  0  0  0  0  0  0  0
   -6.0000   -7.7942    0.0000 C   0  0  0  0  0  0  0  0  0  0  0  0
   -5.2500   -6.4952    0.0000 C   0  0  0  0  0  0  0  0  0  0  0  0
   -3.7500   -6.4952    0.0000 N   0  0  0  0  0  0  0  0  0  0  0  0
   -3.0000   -5.1962    0.0000 C   0  0  0  0  0  0  0  0  0  0  0  0
   -1.5000   -5.1962    0.0000 C   0  0  0  0  0  0  0  0  0  0  0  0
   -0.7500   -3.8971    0.0000 C   0  0  0  0  0  0  0  0  0  0  0  0
    0.7500   -3.8971    0.0000 C   0  0  0  0  0  0  0  0  0  0  0  0
    1.5000   -2.5981    0.0000 C   0  0  0  0  0  0  0  0  0  0  0  0
    0.7500   -1.2990    0.0000 C   0  0  0  0  0  0  0  0  0  0  0  0
    1.5000    0.0000    0.0000 C   0  0  0  0  0  0  0  0  0  0  0  0
    0.7500    1.2990    0.0000 C   0  0  0  0  0  0  0  0  0  0  0  0
   -0.7500    1.2990    0.0000 C   0  0  0  0  0  0  0  0  0  0  0  0
   -1.5000    0.0000    0.0000 C   0  0  0  0  0  0  0  0  0  0  0  0
   -0.7500   -1.2990    0.0000 C   0  0  0  0  0  0  0  0  0  0  0  0
   -1.5000   -2.5981    0.0000 C   0  0  0  0  0  0  0  0  0  0  0  0
   -3.0000   -7.7942    0.0000 C   0  0  0  0  0  0  0  0  0  0  0  0
   -1.5000   -7.7942    0.0000 O   0  0  0  0  0  0  0  0  0  0  0  0
   -3.7500  -14.2894    0.0000 N   0  0  0  0  0  0  0  0  0  0  0  0
   -3.0000  -15.5885    0.0000 O   0  0  0  0  0  0  0  0  0  0  0  0
  1  2  2  0
  2  3  1  0
  3  4  2  3
  4  5  1  0
  5  6  2  0
  6  7  1  0
  7  8  2  0
  8  9  1  0
  9 10  1  0
 10 11  1  0
 11 12  1  0
 12 13  2  0
 13 14  1  0
 14 15  2  0
 15 16  1  0
 16 17  2  0
 17 18  1  0
 18 19  2  0
 19 20  1  0
 20 21  2  0
  9 22  1  0
 22 23  2  0
  2 24  1  0
 24 25  1  0
 22  5  1  0
 21 12  1  0
 20 15  1  0
M  END
>  <molecule_chembl_id>  (557) 
CHEMBL4577107

>  <canonical_smiles>  (557) 
O=C(C=Cc1cccn(CCc2ccc3ccccc3c2)c1=O)NO

>  <pchembl_value_mean>  (557) 
6.25

>  <document_chembl_id>  (557) 
CHEMBL4422610

$$$$

     RDKit          2D

 29 32  0  0  0  0  0  0  0  0999 V2000
   -9.3809    5.3984    0.0000 O   0  0  0  0  0  0  0  0  0  0  0  0
   -7.9543    4.9349    0.0000 C   0  0  0  0  0  0  0  0  0  0  0  0
   -7.6424    3.4677    0.0000 C   0  0  0  0  0  0  0  0  0  0  0  0
   -8.7571    2.4640    0.0000 C   0  0  0  0  0  0  0  0  0  0  0  0
   -8.4453    0.9968    0.0000 C   0  0  0  0  0  0  0  0  0  0  0  0
   -9.5600   -0.0069    0.0000 C   0  0  0  0  0  0  0  0  0  0  0  0
   -9.2481   -1.4741    0.0000 C   0  0  0  0  0  0  0  0  0  0  0  0
  -10.2518   -2.5889    0.0000 C   0  0  0  0  0  0  0  0  0  0  0  0
   -9.5018   -3.8879    0.0000 C   0  0  0  0  0  0  0  0  0  0  0  0
   -8.0346   -3.5760    0.0000 N   0  0  0  0  0  0  0  0  0  0  0  0
   -6.9199   -4.5797    0.0000 C   0  0  0  0  0  0  0  0  0  0  0  0
   -5.4933   -4.1162    0.0000 C   0  0  0  0  0  0  0  0  0  0  0  0
   -4.3786   -5.1199    0.0000 C   0  0  0  0  0  0  0  0  0  0  0  0
   -2.9520   -4.6564    0.0000 C   0  0  0  0  0  0  0  0  0  0  0  0
   -2.6401   -3.1891    0.0000 C   0  0  0  0  0  0  0  0  0  0  0  0
   -1.2135   -2.7256    0.0000 N   0  0  0  0  0  0  0  0  0  0  0  0
   -0.0000   -3.6073    0.0000 C   0  0  0  0  0  0  0  0  0  0  0  0
    1.2135   -2.7256    0.0000 C   0  0  0  0  0  0  0  0  0  0  0  0
    0.7500   -1.2990    0.0000 C   0  0  0  0  0  0  0  0  0  0  0  0
    1.5000    0.0000    0.0000 C   0  0  0  0  0  0  0  0  0  0  0  0
    0.7500    1.2990    0.0000 C   0  0  0  0  0  0  0  0  0  0  0  0
   -0.7500    1.2990    0.0000 C   0  0  0  0  0  0  0  0  0  0  0  0
   -1.5000    0.0000    0.0000 C   0  0  0  0  0  0  0  0  0  0  0  0
   -0.7500   -1.2990    0.0000 C   0  0  0  0  0  0  0  0  0  0  0  0
   -3.7548   -2.1855    0.0000 C   0  0  0  0  0  0  0  0  0  0  0  0
   -5.1814   -2.6490    0.0000 C   0  0  0  0  0  0  0  0  0  0  0  0
   -7.8778   -2.0842    0.0000 N   0  0  0  0  0  0  0  0  0  0  0  0
   -6.8396    5.9386    0.0000 N   0  0  0  0  0  0  0  0  0  0  0  0
   -7.1514    7.4058    0.0000 O   0  0  0  0  0  0  0  0  0  0  0  0
  1  2  2  0
  2  3  1  0
  3  4  1  0
  4  5  1  0
  5  6  1  0
  6  7  1  0
  7  8  1  0
  8  9  2  0
  9 10  1  0
 10 11  1  0
 11 12  1  0
 12 13  2  0
 13 14  1  0
 14 15  2  0
 15 16  1  0
 16 17  1  0
 17 18  2  0
 18 19  1  0
 19 20  2  0
 20 21  1  0
 21 22  2  0
 22 23  1  0
 23 24  2  0
 15 25  1  0
 25 26  2  0
 10 27  1  0
  2 28  1  0
 28 29  1  0
 27  7  2  0
 26 12  1  0
 24 16  1  0
 24 19  1  0
M  END
>  <molecule_chembl_id>  (558) 
CHEMBL3335298

>  <canonical_smiles>  (558) 
O=C(CCCCc1ccn(Cc2ccc(-n3ccc4ccccc43)cc2)n1)NO

>  <pchembl_value_mean>  (558) 
6.25

>  <document_chembl_id>  (558) 
CHEMBL3352093

$$$$

     RDKit          2D

 33 36  0  0  0  0  0  0  0  0999 V2000
    5.2500   -1.2990    0.0000 C   0  0  0  0  0  0  0  0  0  0  0  0
    3.7500   -1.2990    0.0000 C   0  0  0  0  0  0  0  0  0  0  0  0
    3.0000   -2.5981    0.0000 O   0  0  0  0  0  0  0  0  0  0  0  0
    3.0000    0.0000    0.0000 N   0  0  0  0  0  0  0  0  0  0  0  0
    1.5000    0.0000    0.0000 C   0  0  0  0  0  0  0  0  0  0  0  0
    0.7500   -1.2990    0.0000 C   0  0  0  0  0  0  0  0  0  0  0  0
   -0.7500   -1.2990    0.0000 C   0  0  0  0  0  0  0  0  0  0  0  0
   -1.5000    0.0000    0.0000 C   0  0  0  0  0  0  0  0  0  0  0  0
   -2.9672    0.3119    0.0000 N   0  0  0  0  0  0  0  0  0  0  0  0
   -3.1240    1.8037    0.0000 C   0  0  0  0  0  0  0  0  0  0  0  0
   -4.4231    2.5537    0.0000 C   0  0  0  0  0  0  0  0  0  0  0  0
   -5.7221    1.8037    0.0000 O   0  0  0  0  0  0  0  0  0  0  0  0
   -4.4231    4.0537    0.0000 N   0  0  0  0  0  0  0  0  0  0  0  0
   -5.7221    4.8037    0.0000 C   0  0  0  0  0  0  0  0  0  0  0  0
   -5.7221    6.3037    0.0000 C   0  0  0  0  0  0  0  0  0  0  0  0
   -4.4231    7.0537    0.0000 C   0  0  0  0  0  0  0  0  0  0  0  0
   -4.4231    8.5537    0.0000 C   0  0  0  0  0  0  0  0  0  0  0  0
   -5.7221    9.3037    0.0000 C   0  0  0  0  0  0  0  0  0  0  0  0
   -5.7221   10.8037    0.0000 C   0  0  0  0  0  0  0  0  0  0  0  0
   -7.0211   11.5537    0.0000 O   0  0  0  0  0  0  0  0  0  0  0  0
   -4.4231   11.5537    0.0000 N   0  0  0  0  0  0  0  0  0  0  0  0
   -4.4231   13.0537    0.0000 C   0  0  0  0  0  0  0  0  0  0  0  0
   -3.1240   13.8037    0.0000 C   0  0  0  0  0  0  0  0  0  0  0  0
   -3.1240   15.3037    0.0000 C   0  0  0  0  0  0  0  0  0  0  0  0
   -4.4231   16.0537    0.0000 C   0  0  0  0  0  0  0  0  0  0  0  0
   -5.7221   15.3037    0.0000 C   0  0  0  0  0  0  0  0  0  0  0  0
   -5.7221   13.8037    0.0000 C   0  0  0  0  0  0  0  0  0  0  0  0
   -7.0211   13.0537    0.0000 N   0  0  0  0  0  0  0  0  0  0  0  0
   -7.0211    8.5537    0.0000 C   0  0  0  0  0  0  0  0  0  0  0  0
   -7.0211    7.0537    0.0000 C   0  0  0  0  0  0  0  0  0  0  0  0
   -1.7537    2.4138    0.0000 C   0  0  0  0  0  0  0  0  0  0  0  0
   -0.7500    1.2990    0.0000 C   0  0  0  0  0  0  0  0  0  0  0  0
    0.7500    1.2990    0.0000 C   0  0  0  0  0  0  0  0  0  0  0  0
  1  2  1  0
  2  3  2  0
  2  4  1  0
  4  5  1  0
  5  6  2  0
  6  7  1  0
  7  8  2  0
  8  9  1  0
  9 10  1  0
 10 11  1  0
 11 12  2  0
 11 13  1  0
 13 14  1  0
 14 15  1  0
 15 16  2  0
 16 17  1  0
 17 18  2  0
 18 19  1  0
 19 20  2  0
 19 21  1  0
 21 22  1  0
 22 23  2  0
 23 24  1  0
 24 25  2  0
 25 26  1  0
 26 27  2  0
 27 28  1  0
 18 29  1  0
 29 30  2  0
 10 31  2  0
 31 32  1  0
 32 33  2  0
 33  5  1  0
 32  8  1  0
 30 15  1  0
 27 22  1  0
M  END
>  <molecule_chembl_id>  (559) 
CHEMBL3673112

>  <canonical_smiles>  (559) 
CC(=O)Nc1ccc2[nH]c(C(=O)NCc3ccc(C(=O)Nc4ccccc4N)cc3)cc2c1

>  <pchembl_value_mean>  (559) 
6.255

>  <document_chembl_id>  (559) 
CHEMBL3638911

$$$$

     RDKit          2D

 28 30  0  0  0  0  0  0  0  0999 V2000
    3.0000    0.0000    0.0000 C   0  0  0  0  0  0  0  0  0  0  0  0
    1.5000    0.0000    0.0000 C   0  0  0  0  0  0  0  0  0  0  0  0
    0.7500   -1.2990    0.0000 C   0  0  0  0  0  0  0  0  0  0  0  0
   -0.7500   -1.2990    0.0000 C   0  0  0  0  0  0  0  0  0  0  0  0
   -1.5000    0.0000    0.0000 C   0  0  0  0  0  0  0  0  0  0  0  0
   -3.0000    0.0000    0.0000 C   0  0  0  0  0  0  0  0  0  0  0  0
   -3.8817   -1.2135    0.0000 C   0  0  0  0  0  0  0  0  0  0  0  0
   -5.3083   -0.7500    0.0000 C   0  0  0  0  0  0  0  0  0  0  0  0
   -6.5218   -1.6317    0.0000 C   0  0  0  0  0  0  0  0  0  0  0  0
   -7.7353   -2.5134    0.0000 F   0  0  0  0  0  0  0  0  0  0  0  0
   -7.4035   -0.4182    0.0000 F   0  0  0  0  0  0  0  0  0  0  0  0
   -5.6401   -2.8452    0.0000 F   0  0  0  0  0  0  0  0  0  0  0  0
   -5.3083    0.7500    0.0000 N   0  0  0  0  0  0  0  0  0  0  0  0
   -6.5218    1.6317    0.0000 C   0  0  0  0  0  0  0  0  0  0  0  0
   -6.3650    3.1235    0.0000 C   0  0  0  0  0  0  0  0  0  0  0  0
   -7.5785    4.0051    0.0000 C   0  0  0  0  0  0  0  0  0  0  0  0
   -7.4217    5.4969    0.0000 C   0  0  0  0  0  0  0  0  0  0  0  0
   -8.6353    6.3786    0.0000 C   0  0  0  0  0  0  0  0  0  0  0  0
  -10.0056    5.7685    0.0000 C   0  0  0  0  0  0  0  0  0  0  0  0
  -11.2191    6.6502    0.0000 C   0  0  0  0  0  0  0  0  0  0  0  0
  -12.5894    6.0401    0.0000 O   0  0  0  0  0  0  0  0  0  0  0  0
  -11.0623    8.1420    0.0000 N   0  0  0  0  0  0  0  0  0  0  0  0
  -12.2758    9.0236    0.0000 O   0  0  0  0  0  0  0  0  0  0  0  0
  -10.1624    4.2767    0.0000 C   0  0  0  0  0  0  0  0  0  0  0  0
   -8.9488    3.3950    0.0000 C   0  0  0  0  0  0  0  0  0  0  0  0
   -3.8817    1.2135    0.0000 N   0  0  0  0  0  0  0  0  0  0  0  0
   -0.7500    1.2990    0.0000 C   0  0  0  0  0  0  0  0  0  0  0  0
    0.7500    1.2990    0.0000 C   0  0  0  0  0  0  0  0  0  0  0  0
  1  2  1  0
  2  3  2  0
  3  4  1  0
  4  5  2  0
  5  6  1  0
  6  7  1  0
  7  8  2  0
  8  9  1  0
  9 10  1  0
  9 11  1  0
  9 12  1  0
  8 13  1  0
 13 14  1  0
 14 15  1  0
 15 16  1  0
 16 17  2  0
 17 18  1  0
 18 19  2  0
 19 20  1  0
 20 21  2  0
 20 22  1  0
 22 23  1  0
 19 24  1  0
 24 25  2  0
 13 26  1  0
  5 27  1  0
 27 28  2  0
 28  2  1  0
 26  6  2  0
 25 16  1  0
M  END
>  <molecule_chembl_id>  (560) 
CHEMBL4229123

>  <canonical_smiles>  (560) 
Cc1ccc(-c2cc(C(F)(F)F)n(CCc3ccc(C(=O)NO)cc3)n2)cc1

>  <pchembl_value_mean>  (560) 
6.26

>  <document_chembl_id>  (560) 
CHEMBL4219109

$$$$

     RDKit          2D

 42 45  0  0  0  0  0  0  0  0999 V2000
    3.3411    2.7736    0.0000 C   0  0  0  0  0  0  0  0  0  0  0  0
    1.8471    2.6391    0.0000 C   0  0  0  0  0  0  0  0  0  0  0  0
    0.8602    3.7687    0.0000 N   0  0  0  0  0  0  0  0  0  0  0  0
   -0.5191    3.1792    0.0000 C   0  0  0  0  0  0  0  0  0  0  0  0
   -1.8068    3.9485    0.0000 C   0  0  0  0  0  0  0  0  0  0  0  0
   -3.1169    3.2181    0.0000 O   0  0  0  0  0  0  0  0  0  0  0  0
   -1.7843    5.4484    0.0000 N   0  0  0  0  0  0  0  0  0  0  0  0
   -3.0720    6.2177    0.0000 C   0  0  0  0  0  0  0  0  0  0  0  0
   -3.0496    7.7176    0.0000 C   0  0  0  0  0  0  0  0  0  0  0  0
   -4.3372    8.4869    0.0000 C   0  0  0  0  0  0  0  0  0  0  0  0
   -4.3148    9.9867    0.0000 S   0  0  0  0  0  0  0  0  0  0  0  0
   -2.8150    9.9643    0.0000 O   0  0  0  0  0  0  0  0  0  0  0  0
   -5.8146   10.0092    0.0000 O   0  0  0  0  0  0  0  0  0  0  0  0
   -4.2924   11.4866    0.0000 N   0  0  0  0  0  0  0  0  0  0  0  0
   -2.9823   12.2171    0.0000 C   0  0  0  0  0  0  0  0  0  0  0  0
   -2.9598   13.7169    0.0000 C   0  0  0  0  0  0  0  0  0  0  0  0
   -4.2475   14.4862    0.0000 O   0  0  0  0  0  0  0  0  0  0  0  0
   -5.5576   13.7558    0.0000 C   0  0  0  0  0  0  0  0  0  0  0  0
   -5.5800   12.2559    0.0000 C   0  0  0  0  0  0  0  0  0  0  0  0
   -5.6474    7.7564    0.0000 C   0  0  0  0  0  0  0  0  0  0  0  0
   -5.6698    6.2566    0.0000 C   0  0  0  0  0  0  0  0  0  0  0  0
   -4.3821    5.4872    0.0000 C   0  0  0  0  0  0  0  0  0  0  0  0
   -4.4046    3.9874    0.0000 O   0  0  0  0  0  0  0  0  0  0  0  0
   -5.7147    3.2569    0.0000 C   0  0  0  0  0  0  0  0  0  0  0  0
   -5.7371    1.7571    0.0000 C   0  0  0  0  0  0  0  0  0  0  0  0
   -7.0472    1.0266    0.0000 C   0  0  0  0  0  0  0  0  0  0  0  0
   -7.0697   -0.4732    0.0000 C   0  0  0  0  0  0  0  0  0  0  0  0
   -8.3798   -1.2037    0.0000 C   0  0  0  0  0  0  0  0  0  0  0  0
   -8.4022   -2.7035    0.0000 C   0  0  0  0  0  0  0  0  0  0  0  0
   -9.7123   -3.4340    0.0000 C   0  0  0  0  0  0  0  0  0  0  0  0
   -9.7348   -4.9339    0.0000 C   0  0  0  0  0  0  0  0  0  0  0  0
   -8.4471   -5.7032    0.0000 O   0  0  0  0  0  0  0  0  0  0  0  0
  -11.0449   -5.6643    0.0000 N   0  0  0  0  0  0  0  0  0  0  0  0
  -11.0673   -7.1642    0.0000 O   0  0  0  0  0  0  0  0  0  0  0  0
   -0.3846    1.6852    0.0000 C   0  0  0  0  0  0  0  0  0  0  0  0
    1.0777    1.3515    0.0000 C   0  0  0  0  0  0  0  0  0  0  0  0
    1.7286    0.0000    0.0000 C   0  0  0  0  0  0  0  0  0  0  0  0
    3.2286   -0.0000    0.0000 O   0  0  0  0  0  0  0  0  0  0  0  0
    1.0777   -1.3515    0.0000 C   0  0  0  0  0  0  0  0  0  0  0  0
   -0.3846   -1.6852    0.0000 C   0  0  0  0  0  0  0  0  0  0  0  0
   -1.5574   -0.7500    0.0000 C   0  0  0  0  0  0  0  0  0  0  0  0
   -1.5574    0.7500    0.0000 C   0  0  0  0  0  0  0  0  0  0  0  0
  1  2  1  0
  2  3  1  0
  3  4  1  0
  4  5  1  0
  5  6  2  0
  5  7  1  0
  7  8  1  0
  8  9  2  0
  9 10  1  0
 10 11  1  0
 11 12  2  0
 11 13  2  0
 11 14  1  0
 14 15  1  0
 15 16  1  0
 16 17  1  0
 17 18  1  0
 18 19  1  0
 10 20  2  0
 20 21  1  0
 21 22  2  0
 22 23  1  0
 23 24  1  0
 24 25  1  0
 25 26  1  0
 26 27  1  0
 27 28  1  0
 28 29  1  0
 29 30  1  0
 30 31  1  0
 31 32  2  0
 31 33  1  0
 33 34  1  0
  4 35  2  0
 35 36  1  0
 36 37  1  0
 37 38  2  0
 37 39  1  0
 39 40  1  0
 40 41  1  0
 41 42  1  0
 36  2  2  0
 22  8  1  0
 42 35  1  0
 19 14  1  0
M  END
>  <molecule_chembl_id>  (561) 
CHEMBL5083849

>  <canonical_smiles>  (561) 
Cc1[nH]c(C(=O)Nc2cc(S(=O)(=O)N3CCOCC3)ccc2OCCCCCCCC(=O)NO)c2c1C(=O)CCCC2

>  <pchembl_value_mean>  (561) 
6.27

>  <document_chembl_id>  (561) 
CHEMBL5055650

$$$$

     RDKit          2D

 34 37  0  0  0  0  0  0  0  0999 V2000
  -13.2499   -9.3683    0.0000 O   0  0  0  0  0  0  0  0  0  0  0  0
  -12.9381   -7.9010    0.0000 C   0  0  0  0  0  0  0  0  0  0  0  0
  -11.5115   -7.4375    0.0000 C   0  0  0  0  0  0  0  0  0  0  0  0
  -10.3968   -8.4412    0.0000 C   0  0  0  0  0  0  0  0  0  0  0  0
   -8.9702   -7.9777    0.0000 C   0  0  0  0  0  0  0  0  0  0  0  0
   -8.6583   -6.5105    0.0000 C   0  0  0  0  0  0  0  0  0  0  0  0
   -7.2317   -6.0469    0.0000 C   0  0  0  0  0  0  0  0  0  0  0  0
   -6.1170   -7.0506    0.0000 C   0  0  0  0  0  0  0  0  0  0  0  0
   -4.6904   -6.5871    0.0000 O   0  0  0  0  0  0  0  0  0  0  0  0
   -4.3786   -5.1199    0.0000 C   0  0  0  0  0  0  0  0  0  0  0  0
   -2.9520   -4.6564    0.0000 C   0  0  0  0  0  0  0  0  0  0  0  0
   -2.6401   -3.1891    0.0000 C   0  0  0  0  0  0  0  0  0  0  0  0
   -1.2135   -2.7256    0.0000 C   0  0  0  0  0  0  0  0  0  0  0  0
   -0.0000   -3.6073    0.0000 C   0  0  0  0  0  0  0  0  0  0  0  0
    1.2135   -2.7256    0.0000 N   0  0  0  0  0  0  0  0  0  0  0  0
    0.7500   -1.2990    0.0000 C   0  0  0  0  0  0  0  0  0  0  0  0
    1.5000    0.0000    0.0000 C   0  0  0  0  0  0  0  0  0  0  0  0
    0.7500    1.2990    0.0000 C   0  0  0  0  0  0  0  0  0  0  0  0
   -0.7500    1.2990    0.0000 C   0  0  0  0  0  0  0  0  0  0  0  0
   -1.5000    0.0000    0.0000 C   0  0  0  0  0  0  0  0  0  0  0  0
   -0.7500   -1.2990    0.0000 C   0  0  0  0  0  0  0  0  0  0  0  0
   -1.8373   -5.6601    0.0000 N   0  0  0  0  0  0  0  0  0  0  0  0
   -2.1491   -7.1273    0.0000 C   0  0  0  0  0  0  0  0  0  0  0  0
   -3.5757   -7.5908    0.0000 O   0  0  0  0  0  0  0  0  0  0  0  0
   -1.0344   -8.1310    0.0000 C   0  0  0  0  0  0  0  0  0  0  0  0
   -1.3463   -9.5982    0.0000 C   0  0  0  0  0  0  0  0  0  0  0  0
   -0.2316  -10.6019    0.0000 C   0  0  0  0  0  0  0  0  0  0  0  0
    1.1950  -10.1384    0.0000 C   0  0  0  0  0  0  0  0  0  0  0  0
    1.5069   -8.6712    0.0000 C   0  0  0  0  0  0  0  0  0  0  0  0
    0.3922   -7.6675    0.0000 C   0  0  0  0  0  0  0  0  0  0  0  0
   -6.4289   -8.5179    0.0000 C   0  0  0  0  0  0  0  0  0  0  0  0
   -7.8555   -8.9814    0.0000 C   0  0  0  0  0  0  0  0  0  0  0  0
  -14.0528   -6.8974    0.0000 N   0  0  0  0  0  0  0  0  0  0  0  0
  -15.4794   -7.3609    0.0000 O   0  0  0  0  0  0  0  0  0  0  0  0
  1  2  2  0
  2  3  1  0
  3  4  2  3
  4  5  1  0
  5  6  2  0
  6  7  1  0
  7  8  2  0
  8  9  1  0
  9 10  1  0
 10 11  1  0
 11 12  1  0
 12 13  1  0
 13 14  2  0
 14 15  1  0
 15 16  1  0
 16 17  2  0
 17 18  1  0
 18 19  2  0
 19 20  1  0
 20 21  2  0
 11 22  1  0
 22 23  1  0
 23 24  2  0
 23 25  1  0
 25 26  2  0
 26 27  1  0
 27 28  2  0
 28 29  1  0
 29 30  2  0
  8 31  1  0
 31 32  2  0
  2 33  1  0
 33 34  1  0
 32  5  1  0
 21 13  1  0
 30 25  1  0
 21 16  1  0
M  END
>  <molecule_chembl_id>  (562) 
CHEMBL3233687

>  <canonical_smiles>  (562) 
O=C(C=Cc1ccc(OCC(Cc2c[nH]c3ccccc23)NC(=O)c2ccccc2)cc1)NO

>  <pchembl_value_mean>  (562) 
6.27

>  <document_chembl_id>  (562) 
CHEMBL3232921

$$$$

     RDKit          2D

 30 33  0  0  0  0  0  0  0  0999 V2000
    5.2500   -9.0933    0.0000 O   0  0  0  0  0  0  0  0  0  0  0  0
    6.0000   -7.7942    0.0000 C   0  0  0  0  0  0  0  0  0  0  0  0
    7.5000   -7.7942    0.0000 N   0  0  0  0  0  0  0  0  0  0  0  0
    8.2500   -9.0933    0.0000 O   0  0  0  0  0  0  0  0  0  0  0  0
    5.2500   -6.4952    0.0000 C   0  0  0  0  0  0  0  0  0  0  0  0
    3.7500   -6.4952    0.0000 C   0  0  0  0  0  0  0  0  0  0  0  0
    3.0000   -5.1962    0.0000 C   0  0  0  0  0  0  0  0  0  0  0  0
    3.7500   -3.8971    0.0000 C   0  0  0  0  0  0  0  0  0  0  0  0
    3.0000   -2.5981    0.0000 C   0  0  0  0  0  0  0  0  0  0  0  0
    1.5000   -2.5981    0.0000 N   0  0  0  0  0  0  0  0  0  0  0  0
    0.7500   -1.2990    0.0000 C   0  0  0  0  0  0  0  0  0  0  0  0
    1.5000    0.0000    0.0000 C   0  0  0  0  0  0  0  0  0  0  0  0
    0.7500    1.2990    0.0000 C   0  0  0  0  0  0  0  0  0  0  0  0
   -0.7500    1.2990    0.0000 C   0  0  0  0  0  0  0  0  0  0  0  0
   -1.5000    0.0000    0.0000 C   0  0  0  0  0  0  0  0  0  0  0  0
   -0.7500   -1.2990    0.0000 C   0  0  0  0  0  0  0  0  0  0  0  0
   -1.5000   -2.5981    0.0000 N   0  0  0  0  0  0  0  0  0  0  0  0
   -0.7500   -3.8971    0.0000 C   0  0  0  0  0  0  0  0  0  0  0  0
   -1.5000   -5.1962    0.0000 O   0  0  0  0  0  0  0  0  0  0  0  0
    0.7500   -3.8971    0.0000 C   0  0  0  0  0  0  0  0  0  0  0  0
    1.5000   -5.1962    0.0000 C   0  0  0  0  0  0  0  0  0  0  0  0
    0.7500   -6.4952    0.0000 C   0  0  0  0  0  0  0  0  0  0  0  0
    1.5000   -7.7942    0.0000 C   0  0  0  0  0  0  0  0  0  0  0  0
    0.7500   -9.0933    0.0000 C   0  0  0  0  0  0  0  0  0  0  0  0
    1.5000  -10.3923    0.0000 C   0  0  0  0  0  0  0  0  0  0  0  0
    3.0000  -10.3923    0.0000 C   0  0  0  0  0  0  0  0  0  0  0  0
    3.7500   -9.0933    0.0000 C   0  0  0  0  0  0  0  0  0  0  0  0
    3.0000   -7.7942    0.0000 C   0  0  0  0  0  0  0  0  0  0  0  0
    5.2500   -3.8971    0.0000 C   0  0  0  0  0  0  0  0  0  0  0  0
    6.0000   -5.1962    0.0000 C   0  0  0  0  0  0  0  0  0  0  0  0
  1  2  2  0
  2  3  1  0
  3  4  1  0
  2  5  1  0
  5  6  2  0
  6  7  1  0
  7  8  2  0
  8  9  1  0
  9 10  1  0
 10 11  1  0
 11 12  2  0
 12 13  1  0
 13 14  2  0
 14 15  1  0
 15 16  2  0
 16 17  1  0
 17 18  1  0
 18 19  2  0
 18 20  1  0
 20 21  1  0
 21 22  1  0
 22 23  1  0
 23 24  2  0
 24 25  1  0
 25 26  2  0
 26 27  1  0
 27 28  2  0
  8 29  1  0
 29 30  2  0
 30  5  1  0
 20 10  1  0
 28 23  1  0
 16 11  1  0
M  END
>  <molecule_chembl_id>  (563) 
CHEMBL482358

>  <canonical_smiles>  (563) 
O=C(NO)c1ccc(CN2c3ccccc3NC(=O)C2CCc2ccccc2)cc1

>  <pchembl_value_mean>  (563) 
6.28

>  <document_chembl_id>  (563) 
CHEMBL1143301

$$$$

     RDKit          2D

 30 33  0  0  0  0  0  0  0  0999 V2000
    3.0000    0.0000    0.0000 N   0  0  0  0  0  0  0  0  0  0  0  0
    1.5000    0.0000    0.0000 C   0  0  0  0  0  0  0  0  0  0  0  0
    0.7500   -1.2990    0.0000 C   0  0  0  0  0  0  0  0  0  0  0  0
   -0.7500   -1.2990    0.0000 C   0  0  0  0  0  0  0  0  0  0  0  0
   -1.5000    0.0000    0.0000 C   0  0  0  0  0  0  0  0  0  0  0  0
   -0.7500    1.2990    0.0000 C   0  0  0  0  0  0  0  0  0  0  0  0
    0.7500    1.2990    0.0000 C   0  0  0  0  0  0  0  0  0  0  0  0
    1.5000    2.5981    0.0000 N   0  0  0  0  0  0  0  0  0  0  0  0
    0.7500    3.8971    0.0000 C   0  0  0  0  0  0  0  0  0  0  0  0
   -0.7500    3.8971    0.0000 O   0  0  0  0  0  0  0  0  0  0  0  0
    1.5000    5.1962    0.0000 C   0  0  0  0  0  0  0  0  0  0  0  0
    3.0000    5.1962    0.0000 C   0  0  0  0  0  0  0  0  0  0  0  0
    3.7500    6.4952    0.0000 C   0  0  0  0  0  0  0  0  0  0  0  0
    3.0000    7.7942    0.0000 C   0  0  0  0  0  0  0  0  0  0  0  0
    3.7500    9.0933    0.0000 C   0  0  0  0  0  0  0  0  0  0  0  0
    5.2500    9.0933    0.0000 N   0  0  0  0  0  0  0  0  0  0  0  0
    6.0000   10.3923    0.0000 C   0  0  0  0  0  0  0  0  0  0  0  0
    7.5000   10.3923    0.0000 C   0  0  0  0  0  0  0  0  0  0  0  0
    8.3817   11.6058    0.0000 N   0  0  0  0  0  0  0  0  0  0  0  0
    9.8083   11.1423    0.0000 C   0  0  0  0  0  0  0  0  0  0  0  0
   11.0218   12.0240    0.0000 C   0  0  0  0  0  0  0  0  0  0  0  0
   12.3921   11.4139    0.0000 C   0  0  0  0  0  0  0  0  0  0  0  0
   13.6056   12.2956    0.0000 C   0  0  0  0  0  0  0  0  0  0  0  0
   13.4488   13.7873    0.0000 C   0  0  0  0  0  0  0  0  0  0  0  0
   12.0785   14.3974    0.0000 C   0  0  0  0  0  0  0  0  0  0  0  0
   10.8650   13.5158    0.0000 C   0  0  0  0  0  0  0  0  0  0  0  0
    9.8083    9.6423    0.0000 N   0  0  0  0  0  0  0  0  0  0  0  0
    8.3817    9.1788    0.0000 O   0  0  0  0  0  0  0  0  0  0  0  0
    1.5000    7.7942    0.0000 C   0  0  0  0  0  0  0  0  0  0  0  0
    0.7500    6.4952    0.0000 C   0  0  0  0  0  0  0  0  0  0  0  0
  1  2  1  0
  2  3  2  0
  3  4  1  0
  4  5  2  0
  5  6  1  0
  6  7  2  0
  7  8  1  0
  8  9  1  0
  9 10  2  0
  9 11  1  0
 11 12  2  0
 12 13  1  0
 13 14  2  0
 14 15  1  0
 15 16  1  0
 16 17  1  0
 17 18  1  0
 18 19  2  0
 19 20  1  0
 20 21  1  0
 21 22  2  0
 22 23  1  0
 23 24  2  0
 24 25  1  0
 25 26  2  0
 20 27  2  0
 27 28  1  0
 14 29  1  0
 29 30  2  0
  7  2  1  0
 30 11  1  0
 28 18  1  0
 26 21  1  0
M  END
>  <molecule_chembl_id>  (564) 
CHEMBL3421737

>  <canonical_smiles>  (564) 
Nc1ccccc1NC(=O)c1ccc(CNCc2nc(-c3ccccc3)no2)cc1

>  <pchembl_value_mean>  (564) 
6.28

>  <document_chembl_id>  (564) 
CHEMBL3421568

$$$$

     RDKit          2D

 23 24  0  0  0  0  0  0  0  0999 V2000
    3.7500   -1.2990    0.0000 C   0  0  0  0  0  0  0  0  0  0  0  0
    3.0000    0.0000    0.0000 O   0  0  0  0  0  0  0  0  0  0  0  0
    1.5000    0.0000    0.0000 C   0  0  0  0  0  0  0  0  0  0  0  0
    0.7500   -1.2990    0.0000 C   0  0  0  0  0  0  0  0  0  0  0  0
   -0.7500   -1.2990    0.0000 C   0  0  0  0  0  0  0  0  0  0  0  0
   -1.5000   -2.5981    0.0000 N   0  0  0  0  0  0  0  0  0  0  0  0
   -3.0000   -2.5981    0.0000 C   0  0  0  0  0  0  0  0  0  0  0  0
   -3.7500   -1.2990    0.0000 N   0  0  0  0  0  0  0  0  0  0  0  0
   -5.2500   -1.2990    0.0000 C   0  0  0  0  0  0  0  0  0  0  0  0
   -6.0000   -2.5981    0.0000 C   0  0  0  0  0  0  0  0  0  0  0  0
   -7.5000   -2.5981    0.0000 C   0  0  0  0  0  0  0  0  0  0  0  0
   -8.2500   -3.8971    0.0000 O   0  0  0  0  0  0  0  0  0  0  0  0
   -8.2500   -1.2990    0.0000 N   0  0  0  0  0  0  0  0  0  0  0  0
   -9.7500   -1.2990    0.0000 O   0  0  0  0  0  0  0  0  0  0  0  0
   -5.2500   -3.8971    0.0000 C   0  0  0  0  0  0  0  0  0  0  0  0
   -3.7500   -3.8971    0.0000 N   0  0  0  0  0  0  0  0  0  0  0  0
   -1.5000    0.0000    0.0000 C   0  0  0  0  0  0  0  0  0  0  0  0
   -0.7500    1.2990    0.0000 C   0  0  0  0  0  0  0  0  0  0  0  0
   -1.5000    2.5981    0.0000 C   0  0  0  0  0  0  0  0  0  0  0  0
   -2.2500    3.8971    0.0000 F   0  0  0  0  0  0  0  0  0  0  0  0
   -0.2010    3.3481    0.0000 F   0  0  0  0  0  0  0  0  0  0  0  0
   -2.7990    1.8481    0.0000 F   0  0  0  0  0  0  0  0  0  0  0  0
    0.7500    1.2990    0.0000 C   0  0  0  0  0  0  0  0  0  0  0  0
  1  2  1  0
  2  3  1  0
  3  4  2  0
  4  5  1  0
  5  6  1  0
  6  7  1  0
  7  8  2  0
  8  9  1  0
  9 10  2  0
 10 11  1  0
 11 12  2  0
 11 13  1  0
 13 14  1  0
 10 15  1  0
 15 16  2  0
  5 17  2  0
 17 18  1  0
 18 19  1  0
 19 20  1  0
 19 21  1  0
 19 22  1  0
 18 23  2  0
 23  3  1  0
 16  7  1  0
M  END
>  <molecule_chembl_id>  (565) 
CHEMBL3652241

>  <canonical_smiles>  (565) 
COc1cc(Nc2ncc(C(=O)NO)cn2)cc(C(F)(F)F)c1

>  <pchembl_value_mean>  (565) 
6.28

>  <document_chembl_id>  (565) 
CHEMBL3639071

$$$$

     RDKit          2D

 31 34  0  0  0  0  0  0  0  0999 V2000
   -1.5000   -5.1962    0.0000 C   0  0  0  0  0  0  0  0  0  0  0  0
   -0.7500   -3.8971    0.0000 N   0  0  0  0  0  0  0  0  0  0  0  0
    0.7500   -3.8971    0.0000 C   0  0  0  0  0  0  0  0  0  0  0  0
    1.5000   -5.1962    0.0000 S   0  0  0  0  0  0  0  0  0  0  0  0
    0.7500   -6.4952    0.0000 C   0  0  0  0  0  0  0  0  0  0  0  0
    1.5000   -7.7942    0.0000 C   0  0  0  0  0  0  0  0  0  0  0  0
    0.7500   -9.0933    0.0000 C   0  0  0  0  0  0  0  0  0  0  0  0
    1.5000  -10.3923    0.0000 C   0  0  0  0  0  0  0  0  0  0  0  0
    3.0000  -10.3923    0.0000 C   0  0  0  0  0  0  0  0  0  0  0  0
    3.7500  -11.6913    0.0000 C   0  0  0  0  0  0  0  0  0  0  0  0
    5.2500  -11.6913    0.0000 O   0  0  0  0  0  0  0  0  0  0  0  0
    3.0000  -12.9904    0.0000 N   0  0  0  0  0  0  0  0  0  0  0  0
    3.7500  -14.2894    0.0000 C   0  0  0  0  0  0  0  0  0  0  0  0
    3.0000  -15.5885    0.0000 C   0  0  0  0  0  0  0  0  0  0  0  0
    3.7500  -16.8875    0.0000 C   0  0  0  0  0  0  0  0  0  0  0  0
    5.2500  -16.8875    0.0000 C   0  0  0  0  0  0  0  0  0  0  0  0
    6.0000  -15.5885    0.0000 C   0  0  0  0  0  0  0  0  0  0  0  0
    5.2500  -14.2894    0.0000 C   0  0  0  0  0  0  0  0  0  0  0  0
    6.0000  -12.9904    0.0000 N   0  0  0  0  0  0  0  0  0  0  0  0
    3.7500   -9.0933    0.0000 C   0  0  0  0  0  0  0  0  0  0  0  0
    3.0000   -7.7942    0.0000 C   0  0  0  0  0  0  0  0  0  0  0  0
    1.5000   -2.5981    0.0000 N   0  0  0  0  0  0  0  0  0  0  0  0
    0.7500   -1.2990    0.0000 C   0  0  0  0  0  0  0  0  0  0  0  0
    1.5000    0.0000    0.0000 C   0  0  0  0  0  0  0  0  0  0  0  0
    0.7500    1.2990    0.0000 C   0  0  0  0  0  0  0  0  0  0  0  0
    1.5000    2.5981    0.0000 Br  0  0  0  0  0  0  0  0  0  0  0  0
   -0.7500    1.2990    0.0000 C   0  0  0  0  0  0  0  0  0  0  0  0
   -1.5000    0.0000    0.0000 C   0  0  0  0  0  0  0  0  0  0  0  0
   -0.7500   -1.2990    0.0000 C   0  0  0  0  0  0  0  0  0  0  0  0
   -1.5000   -2.5981    0.0000 C   0  0  0  0  0  0  0  0  0  0  0  0
   -3.0000   -2.5981    0.0000 O   0  0  0  0  0  0  0  0  0  0  0  0
  1  2  1  0
  2  3  1  0
  3  4  1  0
  4  5  1  0
  5  6  1  0
  6  7  2  0
  7  8  1  0
  8  9  2  0
  9 10  1  0
 10 11  2  0
 10 12  1  0
 12 13  1  0
 13 14  2  0
 14 15  1  0
 15 16  2  0
 16 17  1  0
 17 18  2  0
 18 19  1  0
  9 20  1  0
 20 21  2  0
  3 22  2  0
 22 23  1  0
 23 24  2  0
 24 25  1  0
 25 26  1  0
 25 27  2  0
 27 28  1  0
 28 29  2  0
 29 30  1  0
 30 31  2  0
 30  2  1  0
 21  6  1  0
 29 23  1  0
 18 13  1  0
M  END
>  <molecule_chembl_id>  (566) 
CHEMBL4589605

>  <canonical_smiles>  (566) 
Cn1c(SCc2ccc(C(=O)Nc3ccccc3N)cc2)nc2cc(Br)ccc2c1=O

>  <pchembl_value_mean>  (566) 
6.28

>  <document_chembl_id>  (566) 
CHEMBL4393680

$$$$

     RDKit          2D

 32 34  0  0  0  0  0  0  0  0999 V2000
    3.0000   -7.7942    0.0000 O   0  0  0  0  0  0  0  0  0  0  0  0
    3.7500   -6.4952    0.0000 C   0  0  0  0  0  0  0  0  0  0  0  0
    3.0000   -5.1962    0.0000 N   0  0  0  0  0  0  0  0  0  0  0  0
    1.5000   -5.1962    0.0000 C   0  0  0  0  0  0  0  0  0  0  0  0
    0.7500   -6.4952    0.0000 C   0  0  0  0  0  0  0  0  0  0  0  0
    1.5000   -7.7942    0.0000 C   0  0  0  0  0  0  0  0  0  0  0  0
    0.7500   -9.0933    0.0000 C   0  0  0  0  0  0  0  0  0  0  0  0
    1.5000  -10.3923    0.0000 C   0  0  0  0  0  0  0  0  0  0  0  0
    0.7500  -11.6913    0.0000 C   0  0  0  0  0  0  0  0  0  0  0  0
    1.5000  -12.9904    0.0000 B   0  0  0  0  0  0  0  0  0  0  0  0
    0.7500  -14.2894    0.0000 O   0  0  0  0  0  0  0  0  0  0  0  0
    3.0000  -12.9904    0.0000 O   0  0  0  0  0  0  0  0  0  0  0  0
    0.7500   -3.8971    0.0000 C   0  0  0  0  0  0  0  0  0  0  0  0
   -0.7500   -3.8971    0.0000 O   0  0  0  0  0  0  0  0  0  0  0  0
    1.5000   -2.5981    0.0000 N   0  0  0  0  0  0  0  0  0  0  0  0
    0.7500   -1.2990    0.0000 C   0  0  0  0  0  0  0  0  0  0  0  0
    1.5000    0.0000    0.0000 C   0  0  0  0  0  0  0  0  0  0  0  0
    0.7500    1.2990    0.0000 C   0  0  0  0  0  0  0  0  0  0  0  0
   -0.7500    1.2990    0.0000 C   0  0  0  0  0  0  0  0  0  0  0  0
   -1.5000    0.0000    0.0000 C   0  0  0  0  0  0  0  0  0  0  0  0
   -3.0000    0.0000    0.0000 C   0  0  0  0  0  0  0  0  0  0  0  0
   -3.7500    1.2990    0.0000 C   0  0  0  0  0  0  0  0  0  0  0  0
   -5.2500    1.2990    0.0000 C   0  0  0  0  0  0  0  0  0  0  0  0
   -6.0000    0.0000    0.0000 C   0  0  0  0  0  0  0  0  0  0  0  0
   -5.2500   -1.2990    0.0000 C   0  0  0  0  0  0  0  0  0  0  0  0
   -3.7500   -1.2990    0.0000 C   0  0  0  0  0  0  0  0  0  0  0  0
   -0.7500   -1.2990    0.0000 C   0  0  0  0  0  0  0  0  0  0  0  0
    5.2500   -6.4952    0.0000 C   0  0  0  0  0  0  0  0  0  0  0  0
    6.1317   -5.2817    0.0000 C   0  0  0  0  0  0  0  0  0  0  0  0
    7.5583   -5.7452    0.0000 N   0  0  0  0  0  0  0  0  0  0  0  0
    7.5583   -7.2452    0.0000 C   0  0  0  0  0  0  0  0  0  0  0  0
    6.1317   -7.7087    0.0000 S   0  0  0  0  0  0  0  0  0  0  0  0
  1  2  2  0
  2  3  1  0
  3  4  1  0
  4  5  1  0
  5  6  1  0
  6  7  1  0
  7  8  1  0
  8  9  1  0
  9 10  1  0
 10 11  1  0
 10 12  1  0
  4 13  1  0
 13 14  2  0
 13 15  1  0
 15 16  1  0
 16 17  2  0
 17 18  1  0
 18 19  2  0
 19 20  1  0
 20 21  1  0
 21 22  2  0
 22 23  1  0
 23 24  2  0
 24 25  1  0
 25 26  2  0
 20 27  2  0
  2 28  1  0
 28 29  2  0
 29 30  1  0
 30 31  2  0
 31 32  1  0
 27 16  1  0
 32 28  1  0
 26 21  1  0
M  END
>  <molecule_chembl_id>  (567) 
CHEMBL492097

>  <canonical_smiles>  (567) 
O=C(NC(CCCCCB(O)O)C(=O)Nc1cccc(-c2ccccc2)c1)c1cncs1

>  <pchembl_value_mean>  (567) 
6.28

>  <document_chembl_id>  (567) 
CHEMBL1138526

$$$$

     RDKit          2D

 20 21  0  0  0  0  0  0  0  0999 V2000
   10.2760   -2.5981    0.0000 O   0  0  0  0  0  0  0  0  0  0  0  0
    9.5260   -3.8971    0.0000 C   0  0  0  0  0  0  0  0  0  0  0  0
    8.0260   -3.8971    0.0000 C   0  0  0  0  0  0  0  0  0  0  0  0
    7.2760   -2.5981    0.0000 C   0  0  0  0  0  0  0  0  0  0  0  0
    5.7760   -2.5981    0.0000 C   0  0  0  0  0  0  0  0  0  0  0  0
    5.0260   -1.2990    0.0000 C   0  0  0  0  0  0  0  0  0  0  0  0
    3.5260   -1.2990    0.0000 C   0  0  0  0  0  0  0  0  0  0  0  0
    2.7760    0.0000    0.0000 C   0  0  0  0  0  0  0  0  0  0  0  0
    1.2760    0.0000    0.0000 C   0  0  0  0  0  0  0  0  0  0  0  0
    0.3943    1.2135    0.0000 N   0  0  0  0  0  0  0  0  0  0  0  0
   -1.0323    0.7500    0.0000 C   0  0  0  0  0  0  0  0  0  0  0  0
   -2.2458    1.6317    0.0000 C   0  0  0  0  0  0  0  0  0  0  0  0
   -3.6724    1.1682    0.0000 C   0  0  0  0  0  0  0  0  0  0  0  0
   -4.5541    2.3817    0.0000 C   0  0  0  0  0  0  0  0  0  0  0  0
   -3.6724    3.5952    0.0000 C   0  0  0  0  0  0  0  0  0  0  0  0
   -2.2458    3.1317    0.0000 S   0  0  0  0  0  0  0  0  0  0  0  0
   -1.0323   -0.7500    0.0000 N   0  0  0  0  0  0  0  0  0  0  0  0
    0.3943   -1.2135    0.0000 O   0  0  0  0  0  0  0  0  0  0  0  0
   10.2760   -5.1962    0.0000 N   0  0  0  0  0  0  0  0  0  0  0  0
   11.7760   -5.1962    0.0000 O   0  0  0  0  0  0  0  0  0  0  0  0
  1  2  2  0
  2  3  1  0
  3  4  1  0
  4  5  1  0
  5  6  1  0
  6  7  1  0
  7  8  1  0
  8  9  1  0
  9 10  2  0
 10 11  1  0
 11 12  1  0
 12 13  2  0
 13 14  1  0
 14 15  2  0
 15 16  1  0
 11 17  2  0
 17 18  1  0
  2 19  1  0
 19 20  1  0
 18  9  1  0
 16 12  1  0
M  END
>  <molecule_chembl_id>  (568) 
CHEMBL3585967

>  <canonical_smiles>  (568) 
O=C(CCCCCCc1nc(-c2cccs2)no1)NO

>  <pchembl_value_mean>  (568) 
6.29

>  <document_chembl_id>  (568) 
CHEMBL3585316

$$$$

     RDKit          2D

 38 40  0  0  0  0  0  0  0  0999 V2000
    3.7500   -1.2990    0.0000 C   0  0  0  0  0  0  0  0  0  0  0  0
    3.0000    0.0000    0.0000 O   0  0  0  0  0  0  0  0  0  0  0  0
    1.5000    0.0000    0.0000 C   0  0  0  0  0  0  0  0  0  0  0  0
    0.7500   -1.2990    0.0000 C   0  0  0  0  0  0  0  0  0  0  0  0
   -0.7500   -1.2990    0.0000 C   0  0  0  0  0  0  0  0  0  0  0  0
   -1.5000    0.0000    0.0000 C   0  0  0  0  0  0  0  0  0  0  0  0
   -0.7500    1.2990    0.0000 C   0  0  0  0  0  0  0  0  0  0  0  0
   -1.5000    2.5981    0.0000 C   0  0  0  0  0  0  0  0  0  0  0  0
   -0.7500    3.8971    0.0000 O   0  0  0  0  0  0  0  0  0  0  0  0
   -1.5000    5.1962    0.0000 C   0  0  0  0  0  0  0  0  0  0  0  0
   -0.7500    6.4952    0.0000 C   0  0  0  0  0  0  0  0  0  0  0  0
   -1.5000    7.7942    0.0000 C   0  0  0  0  0  0  0  0  0  0  0  0
   -0.7500    9.0933    0.0000 C   0  0  0  0  0  0  0  0  0  0  0  0
   -1.5000   10.3923    0.0000 C   0  0  0  0  0  0  0  0  0  0  0  0
   -0.7500   11.6913    0.0000 C   0  0  0  0  0  0  0  0  0  0  0  0
   -1.5000   12.9904    0.0000 C   0  0  0  0  0  0  0  0  0  0  0  0
   -3.0000   12.9904    0.0000 O   0  0  0  0  0  0  0  0  0  0  0  0
   -0.7500   14.2894    0.0000 N   0  0  0  0  0  0  0  0  0  0  0  0
   -1.5000   15.5885    0.0000 O   0  0  0  0  0  0  0  0  0  0  0  0
   -3.0000    5.1962    0.0000 C   0  0  0  0  0  0  0  0  0  0  0  0
   -3.7500    3.8971    0.0000 O   0  0  0  0  0  0  0  0  0  0  0  0
   -3.7500    6.4952    0.0000 N   0  0  0  0  0  0  0  0  0  0  0  0
   -3.0000    7.7942    0.0000 C   0  0  0  0  0  0  0  0  0  0  0  0
   -3.7500    9.0933    0.0000 C   0  0  0  0  0  0  0  0  0  0  0  0
   -3.0000   10.3923    0.0000 C   0  0  0  0  0  0  0  0  0  0  0  0
   -3.7500   11.6913    0.0000 C   0  0  0  0  0  0  0  0  0  0  0  0
   -5.2500   11.6913    0.0000 C   0  0  0  0  0  0  0  0  0  0  0  0
   -6.0000   10.3923    0.0000 C   0  0  0  0  0  0  0  0  0  0  0  0
   -7.5000   10.3923    0.0000 O   0  0  0  0  0  0  0  0  0  0  0  0
   -8.2500   11.6913    0.0000 C   0  0  0  0  0  0  0  0  0  0  0  0
   -5.2500    9.0933    0.0000 C   0  0  0  0  0  0  0  0  0  0  0  0
   -5.2500    6.4952    0.0000 C   0  0  0  0  0  0  0  0  0  0  0  0
   -6.0000    7.7942    0.0000 C   0  0  0  0  0  0  0  0  0  0  0  0
   -7.5000    7.7942    0.0000 C   0  0  0  0  0  0  0  0  0  0  0  0
   -8.2500    6.4952    0.0000 C   0  0  0  0  0  0  0  0  0  0  0  0
   -7.5000    5.1962    0.0000 C   0  0  0  0  0  0  0  0  0  0  0  0
   -6.0000    5.1962    0.0000 C   0  0  0  0  0  0  0  0  0  0  0  0
    0.7500    1.2990    0.0000 C   0  0  0  0  0  0  0  0  0  0  0  0
  1  2  1  0
  2  3  1  0
  3  4  2  0
  4  5  1  0
  5  6  2  0
  6  7  1  0
  7  8  1  0
  8  9  1  0
  9 10  1  0
 10 11  1  0
 11 12  1  0
 12 13  1  0
 13 14  1  0
 14 15  1  0
 15 16  1  0
 16 17  2  0
 16 18  1  0
 18 19  1  0
 10 20  1  0
 20 21  2  0
 20 22  1  0
 22 23  1  0
 23 24  1  0
 24 25  2  0
 25 26  1  0
 26 27  2  0
 27 28  1  0
 28 29  1  0
 29 30  1  0
 28 31  2  0
 22 32  1  0
 32 33  2  0
 33 34  1  0
 34 35  2  0
 35 36  1  0
 36 37  2  0
  7 38  2  0
 38  3  1  0
 31 24  1  0
 37 32  1  0
M  END
>  <molecule_chembl_id>  (569) 
CHEMBL248798

>  <canonical_smiles>  (569) 
COc1cccc(COC(CCCCCC(=O)NO)C(=O)N(Cc2cccc(OC)c2)c2ccccc2)c1

>  <pchembl_value_mean>  (569) 
6.3

>  <document_chembl_id>  (569) 
CHEMBL1140532

$$$$

     RDKit          2D

 23 23  0  0  0  0  0  0  0  0999 V2000
    9.7500    1.2990    0.0000 C   0  0  0  0  0  0  0  0  0  0  0  0
    8.2500    1.2990    0.0000 C   0  0  0  0  0  0  0  0  0  0  0  0
    7.5000   -0.0000    0.0000 C   0  0  0  0  0  0  0  0  0  0  0  0
    6.0000    0.0000    0.0000 O   0  0  0  0  0  0  0  0  0  0  0  0
    5.2500   -1.2990    0.0000 C   0  0  0  0  0  0  0  0  0  0  0  0
    6.0000   -2.5981    0.0000 C   0  0  0  0  0  0  0  0  0  0  0  0
    7.5000   -2.5981    0.0000 C   0  0  0  0  0  0  0  0  0  0  0  0
    8.2500   -3.8971    0.0000 C   0  0  0  0  0  0  0  0  0  0  0  0
    9.7500   -3.8971    0.0000 C   0  0  0  0  0  0  0  0  0  0  0  0
   10.5000   -5.1962    0.0000 C   0  0  0  0  0  0  0  0  0  0  0  0
   12.0000   -5.1962    0.0000 C   0  0  0  0  0  0  0  0  0  0  0  0
   12.7500   -3.8971    0.0000 O   0  0  0  0  0  0  0  0  0  0  0  0
   12.7500   -6.4952    0.0000 N   0  0  0  0  0  0  0  0  0  0  0  0
   14.2500   -6.4952    0.0000 O   0  0  0  0  0  0  0  0  0  0  0  0
    3.7500   -1.2990    0.0000 C   0  0  0  0  0  0  0  0  0  0  0  0
    3.0000   -2.5981    0.0000 O   0  0  0  0  0  0  0  0  0  0  0  0
    3.0000    0.0000    0.0000 N   0  0  0  0  0  0  0  0  0  0  0  0
    1.5000    0.0000    0.0000 C   0  0  0  0  0  0  0  0  0  0  0  0
    0.7500   -1.2990    0.0000 C   0  0  0  0  0  0  0  0  0  0  0  0
   -0.7500   -1.2990    0.0000 C   0  0  0  0  0  0  0  0  0  0  0  0
   -1.5000    0.0000    0.0000 C   0  0  0  0  0  0  0  0  0  0  0  0
   -0.7500    1.2990    0.0000 C   0  0  0  0  0  0  0  0  0  0  0  0
    0.7500    1.2990    0.0000 C   0  0  0  0  0  0  0  0  0  0  0  0
  1  2  2  0
  2  3  1  0
  3  4  1  0
  4  5  1  0
  5  6  1  0
  6  7  1  0
  7  8  1  0
  8  9  1  0
  9 10  1  0
 10 11  1  0
 11 12  2  0
 11 13  1  0
 13 14  1  0
  5 15  1  0
 15 16  2  0
 15 17  1  0
 17 18  1  0
 18 19  2  0
 19 20  1  0
 20 21  2  0
 21 22  1  0
 22 23  2  0
 23 18  1  0
M  END
>  <molecule_chembl_id>  (570) 
CHEMBL402719

>  <canonical_smiles>  (570) 
C=CCOC(CCCCCC(=O)NO)C(=O)Nc1ccccc1

>  <pchembl_value_mean>  (570) 
6.3

>  <document_chembl_id>  (570) 
CHEMBL1140532

$$$$

     RDKit          2D

 26 27  0  0  0  0  0  0  0  0999 V2000
   -0.7500  -11.6913    0.0000 O   0  0  0  0  0  0  0  0  0  0  0  0
    0.7500  -11.6913    0.0000 C   0  0  0  0  0  0  0  0  0  0  0  0
    1.5000  -10.3923    0.0000 C   0  0  0  0  0  0  0  0  0  0  0  0
    0.7500   -9.0933    0.0000 C   0  0  0  0  0  0  0  0  0  0  0  0
    1.5000   -7.7942    0.0000 C   0  0  0  0  0  0  0  0  0  0  0  0
    0.7500   -6.4952    0.0000 C   0  0  0  0  0  0  0  0  0  0  0  0
    1.5000   -5.1962    0.0000 C   0  0  0  0  0  0  0  0  0  0  0  0
    0.7500   -3.8971    0.0000 O   0  0  0  0  0  0  0  0  0  0  0  0
    1.5000   -2.5981    0.0000 C   0  0  0  0  0  0  0  0  0  0  0  0
    0.7500   -1.2990    0.0000 C   0  0  0  0  0  0  0  0  0  0  0  0
    1.5000    0.0000    0.0000 C   0  0  0  0  0  0  0  0  0  0  0  0
    0.7500    1.2990    0.0000 C   0  0  0  0  0  0  0  0  0  0  0  0
   -0.7500    1.2990    0.0000 C   0  0  0  0  0  0  0  0  0  0  0  0
   -1.5000    0.0000    0.0000 C   0  0  0  0  0  0  0  0  0  0  0  0
   -0.7500   -1.2990    0.0000 C   0  0  0  0  0  0  0  0  0  0  0  0
    3.0000   -5.1962    0.0000 C   0  0  0  0  0  0  0  0  0  0  0  0
    3.7500   -3.8971    0.0000 O   0  0  0  0  0  0  0  0  0  0  0  0
    3.7500   -6.4952    0.0000 N   0  0  0  0  0  0  0  0  0  0  0  0
    5.2500   -6.4952    0.0000 C   0  0  0  0  0  0  0  0  0  0  0  0
    6.0000   -7.7942    0.0000 C   0  0  0  0  0  0  0  0  0  0  0  0
    7.5000   -7.7942    0.0000 C   0  0  0  0  0  0  0  0  0  0  0  0
    8.2500   -6.4952    0.0000 C   0  0  0  0  0  0  0  0  0  0  0  0
    7.5000   -5.1962    0.0000 C   0  0  0  0  0  0  0  0  0  0  0  0
    6.0000   -5.1962    0.0000 C   0  0  0  0  0  0  0  0  0  0  0  0
    1.5000  -12.9904    0.0000 N   0  0  0  0  0  0  0  0  0  0  0  0
    0.7500  -14.2894    0.0000 O   0  0  0  0  0  0  0  0  0  0  0  0
  1  2  2  0
  2  3  1  0
  3  4  1  0
  4  5  1  0
  5  6  1  0
  6  7  1  0
  7  8  1  0
  8  9  1  0
  9 10  1  0
 10 11  2  0
 11 12  1  0
 12 13  2  0
 13 14  1  0
 14 15  2  0
  7 16  1  0
 16 17  2  0
 16 18  1  0
 18 19  1  0
 19 20  2  0
 20 21  1  0
 21 22  2  0
 22 23  1  0
 23 24  2  0
  2 25  1  0
 25 26  1  0
 15 10  1  0
 24 19  1  0
M  END
>  <molecule_chembl_id>  (571) 
CHEMBL402718

>  <canonical_smiles>  (571) 
O=C(CCCCC(OCc1ccccc1)C(=O)Nc1ccccc1)NO

>  <pchembl_value_mean>  (571) 
6.3

>  <document_chembl_id>  (571) 
CHEMBL1140532

$$$$

     RDKit          2D

 21 21  0  0  0  0  0  0  0  0999 V2000
    7.5000   -0.0000    0.0000 C   0  0  0  0  0  0  0  0  0  0  0  0
    6.0000    0.0000    0.0000 O   0  0  0  0  0  0  0  0  0  0  0  0
    5.2500   -1.2990    0.0000 C   0  0  0  0  0  0  0  0  0  0  0  0
    6.0000   -2.5981    0.0000 C   0  0  0  0  0  0  0  0  0  0  0  0
    7.5000   -2.5981    0.0000 C   0  0  0  0  0  0  0  0  0  0  0  0
    8.2500   -3.8971    0.0000 C   0  0  0  0  0  0  0  0  0  0  0  0
    9.7500   -3.8971    0.0000 C   0  0  0  0  0  0  0  0  0  0  0  0
   10.5000   -5.1962    0.0000 C   0  0  0  0  0  0  0  0  0  0  0  0
   12.0000   -5.1962    0.0000 C   0  0  0  0  0  0  0  0  0  0  0  0
   12.7500   -3.8971    0.0000 O   0  0  0  0  0  0  0  0  0  0  0  0
   12.7500   -6.4952    0.0000 N   0  0  0  0  0  0  0  0  0  0  0  0
   14.2500   -6.4952    0.0000 O   0  0  0  0  0  0  0  0  0  0  0  0
    3.7500   -1.2990    0.0000 C   0  0  0  0  0  0  0  0  0  0  0  0
    3.0000   -2.5981    0.0000 O   0  0  0  0  0  0  0  0  0  0  0  0
    3.0000    0.0000    0.0000 N   0  0  0  0  0  0  0  0  0  0  0  0
    1.5000    0.0000    0.0000 C   0  0  0  0  0  0  0  0  0  0  0  0
    0.7500   -1.2990    0.0000 C   0  0  0  0  0  0  0  0  0  0  0  0
   -0.7500   -1.2990    0.0000 C   0  0  0  0  0  0  0  0  0  0  0  0
   -1.5000    0.0000    0.0000 C   0  0  0  0  0  0  0  0  0  0  0  0
   -0.7500    1.2990    0.0000 C   0  0  0  0  0  0  0  0  0  0  0  0
    0.7500    1.2990    0.0000 C   0  0  0  0  0  0  0  0  0  0  0  0
  1  2  1  0
  2  3  1  0
  3  4  1  0
  4  5  1  0
  5  6  1  0
  6  7  1  0
  7  8  1  0
  8  9  1  0
  9 10  2  0
  9 11  1  0
 11 12  1  0
  3 13  1  0
 13 14  2  0
 13 15  1  0
 15 16  1  0
 16 17  2  0
 17 18  1  0
 18 19  2  0
 19 20  1  0
 20 21  2  0
 21 16  1  0
M  END
>  <molecule_chembl_id>  (572) 
CHEMBL251010

>  <canonical_smiles>  (572) 
COC(CCCCCC(=O)NO)C(=O)Nc1ccccc1

>  <pchembl_value_mean>  (572) 
6.3

>  <document_chembl_id>  (572) 
CHEMBL1140532

$$$$

     RDKit          2D

 29 30  0  0  0  0  0  0  0  0999 V2000
    3.7500   -1.2990    0.0000 C   0  0  0  0  0  0  0  0  0  0  0  0
    3.0000    0.0000    0.0000 O   0  0  0  0  0  0  0  0  0  0  0  0
    1.5000    0.0000    0.0000 C   0  0  0  0  0  0  0  0  0  0  0  0
    0.7500   -1.2990    0.0000 C   0  0  0  0  0  0  0  0  0  0  0  0
   -0.7500   -1.2990    0.0000 C   0  0  0  0  0  0  0  0  0  0  0  0
   -1.5000    0.0000    0.0000 C   0  0  0  0  0  0  0  0  0  0  0  0
   -3.0000    0.0000    0.0000 N   0  0  0  0  0  0  0  0  0  0  0  0
   -3.7500    1.2990    0.0000 C   0  0  0  0  0  0  0  0  0  0  0  0
   -3.0000    2.5981    0.0000 O   0  0  0  0  0  0  0  0  0  0  0  0
   -5.2500    1.2990    0.0000 C   0  0  0  0  0  0  0  0  0  0  0  0
   -6.0000    2.5981    0.0000 C   0  0  0  0  0  0  0  0  0  0  0  0
   -7.5000    2.5981    0.0000 C   0  0  0  0  0  0  0  0  0  0  0  0
   -8.2500    3.8971    0.0000 C   0  0  0  0  0  0  0  0  0  0  0  0
   -9.7500    3.8971    0.0000 C   0  0  0  0  0  0  0  0  0  0  0  0
  -10.5000    5.1962    0.0000 C   0  0  0  0  0  0  0  0  0  0  0  0
  -12.0000    5.1962    0.0000 C   0  0  0  0  0  0  0  0  0  0  0  0
  -12.7500    3.8971    0.0000 O   0  0  0  0  0  0  0  0  0  0  0  0
  -12.7500    6.4952    0.0000 N   0  0  0  0  0  0  0  0  0  0  0  0
  -14.2500    6.4952    0.0000 O   0  0  0  0  0  0  0  0  0  0  0  0
   -6.0000    0.0000    0.0000 O   0  0  0  0  0  0  0  0  0  0  0  0
   -7.5000    0.0000    0.0000 C   0  0  0  0  0  0  0  0  0  0  0  0
   -8.2500   -1.2990    0.0000 C   0  0  0  0  0  0  0  0  0  0  0  0
   -9.7500   -1.2990    0.0000 C   0  0  0  0  0  0  0  0  0  0  0  0
  -10.5000   -2.5981    0.0000 C   0  0  0  0  0  0  0  0  0  0  0  0
   -9.7500   -3.8971    0.0000 C   0  0  0  0  0  0  0  0  0  0  0  0
   -8.2500   -3.8971    0.0000 C   0  0  0  0  0  0  0  0  0  0  0  0
   -7.5000   -2.5981    0.0000 C   0  0  0  0  0  0  0  0  0  0  0  0
   -0.7500    1.2990    0.0000 C   0  0  0  0  0  0  0  0  0  0  0  0
    0.7500    1.2990    0.0000 C   0  0  0  0  0  0  0  0  0  0  0  0
  1  2  1  0
  2  3  1  0
  3  4  2  0
  4  5  1  0
  5  6  2  0
  6  7  1  0
  7  8  1  0
  8  9  2  0
  8 10  1  0
 10 11  1  0
 11 12  1  0
 12 13  1  0
 13 14  1  0
 14 15  1  0
 15 16  1  0
 16 17  2  0
 16 18  1  0
 18 19  1  0
 10 20  1  0
 20 21  1  0
 21 22  1  0
 22 23  2  0
 23 24  1  0
 24 25  2  0
 25 26  1  0
 26 27  2  0
  6 28  1  0
 28 29  2  0
 29  3  1  0
 27 22  1  0
M  END
>  <molecule_chembl_id>  (573) 
CHEMBL249198

>  <canonical_smiles>  (573) 
COc1ccc(NC(=O)C(CCCCCC(=O)NO)OCc2ccccc2)cc1

>  <pchembl_value_mean>  (573) 
6.3

>  <document_chembl_id>  (573) 
CHEMBL1140532

$$$$

     RDKit          2D

 35 38  0  0  0  0  0  0  0  0999 V2000
  -13.2499   -9.3683    0.0000 O   0  0  0  0  0  0  0  0  0  0  0  0
  -12.9381   -7.9010    0.0000 C   0  0  0  0  0  0  0  0  0  0  0  0
  -11.5115   -7.4375    0.0000 C   0  0  0  0  0  0  0  0  0  0  0  0
  -10.3968   -8.4412    0.0000 C   0  0  0  0  0  0  0  0  0  0  0  0
   -8.9702   -7.9777    0.0000 C   0  0  0  0  0  0  0  0  0  0  0  0
   -8.6583   -6.5105    0.0000 C   0  0  0  0  0  0  0  0  0  0  0  0
   -7.2317   -6.0469    0.0000 C   0  0  0  0  0  0  0  0  0  0  0  0
   -6.1170   -7.0506    0.0000 C   0  0  0  0  0  0  0  0  0  0  0  0
   -4.6904   -6.5871    0.0000 O   0  0  0  0  0  0  0  0  0  0  0  0
   -4.3786   -5.1199    0.0000 C   0  0  0  0  0  0  0  0  0  0  0  0
   -2.9520   -4.6564    0.0000 C   0  0  0  0  0  0  0  0  0  0  0  0
   -2.6401   -3.1891    0.0000 C   0  0  0  0  0  0  0  0  0  0  0  0
   -1.2135   -2.7256    0.0000 C   0  0  0  0  0  0  0  0  0  0  0  0
   -0.0000   -3.6073    0.0000 C   0  0  0  0  0  0  0  0  0  0  0  0
    1.2135   -2.7256    0.0000 N   0  0  0  0  0  0  0  0  0  0  0  0
    0.7500   -1.2990    0.0000 C   0  0  0  0  0  0  0  0  0  0  0  0
    1.5000    0.0000    0.0000 C   0  0  0  0  0  0  0  0  0  0  0  0
    0.7500    1.2990    0.0000 C   0  0  0  0  0  0  0  0  0  0  0  0
   -0.7500    1.2990    0.0000 C   0  0  0  0  0  0  0  0  0  0  0  0
   -1.5000    0.0000    0.0000 C   0  0  0  0  0  0  0  0  0  0  0  0
   -0.7500   -1.2990    0.0000 C   0  0  0  0  0  0  0  0  0  0  0  0
   -1.8373   -5.6601    0.0000 N   0  0  0  0  0  0  0  0  0  0  0  0
   -2.1491   -7.1273    0.0000 C   0  0  0  0  0  0  0  0  0  0  0  0
   -3.5757   -7.5908    0.0000 O   0  0  0  0  0  0  0  0  0  0  0  0
   -1.0344   -8.1310    0.0000 C   0  0  0  0  0  0  0  0  0  0  0  0
   -1.3463   -9.5982    0.0000 C   0  0  0  0  0  0  0  0  0  0  0  0
   -0.2316  -10.6019    0.0000 C   0  0  0  0  0  0  0  0  0  0  0  0
    1.1950  -10.1384    0.0000 C   0  0  0  0  0  0  0  0  0  0  0  0
    2.3097  -11.1421    0.0000 Cl  0  0  0  0  0  0  0  0  0  0  0  0
    1.5069   -8.6712    0.0000 C   0  0  0  0  0  0  0  0  0  0  0  0
    0.3922   -7.6675    0.0000 C   0  0  0  0  0  0  0  0  0  0  0  0
   -6.4289   -8.5179    0.0000 C   0  0  0  0  0  0  0  0  0  0  0  0
   -7.8555   -8.9814    0.0000 C   0  0  0  0  0  0  0  0  0  0  0  0
  -14.0528   -6.8974    0.0000 N   0  0  0  0  0  0  0  0  0  0  0  0
  -15.4794   -7.3609    0.0000 O   0  0  0  0  0  0  0  0  0  0  0  0
  1  2  2  0
  2  3  1  0
  3  4  2  3
  4  5  1  0
  5  6  2  0
  6  7  1  0
  7  8  2  0
  8  9  1  0
  9 10  1  0
 10 11  1  0
 11 12  1  0
 12 13  1  0
 13 14  2  0
 14 15  1  0
 15 16  1  0
 16 17  2  0
 17 18  1  0
 18 19  2  0
 19 20  1  0
 20 21  2  0
 11 22  1  0
 22 23  1  0
 23 24  2  0
 23 25  1  0
 25 26  2  0
 26 27  1  0
 27 28  2  0
 28 29  1  0
 28 30  1  0
 30 31  2  0
  8 32  1  0
 32 33  2  0
  2 34  1  0
 34 35  1  0
 33  5  1  0
 21 13  1  0
 31 25  1  0
 21 16  1  0
M  END
>  <molecule_chembl_id>  (574) 
CHEMBL3233698

>  <canonical_smiles>  (574) 
O=C(C=Cc1ccc(OCC(Cc2c[nH]c3ccccc23)NC(=O)c2ccc(Cl)cc2)cc1)NO

>  <pchembl_value_mean>  (574) 
6.3

>  <document_chembl_id>  (574) 
CHEMBL3232921

$$$$

     RDKit          2D

 25 27  0  0  0  0  0  0  0  0999 V2000
    1.5000   -5.1962    0.0000 C   0  0  0  0  0  0  0  0  0  0  0  0
    0.7500   -3.8971    0.0000 N   0  0  0  0  0  0  0  0  0  0  0  0
    1.5000   -2.5981    0.0000 C   0  0  0  0  0  0  0  0  0  0  0  0
    0.7500   -1.2990    0.0000 C   0  0  0  0  0  0  0  0  0  0  0  0
    1.5000    0.0000    0.0000 C   0  0  0  0  0  0  0  0  0  0  0  0
    0.7500    1.2990    0.0000 C   0  0  0  0  0  0  0  0  0  0  0  0
   -0.7500    1.2990    0.0000 C   0  0  0  0  0  0  0  0  0  0  0  0
   -1.5000    2.5981    0.0000 C   0  0  0  0  0  0  0  0  0  0  0  0
   -3.0000    2.5981    0.0000 O   0  0  0  0  0  0  0  0  0  0  0  0
   -0.7500    3.8971    0.0000 N   0  0  0  0  0  0  0  0  0  0  0  0
   -1.5000    5.1962    0.0000 C   0  0  0  0  0  0  0  0  0  0  0  0
   -0.7500    6.4952    0.0000 C   0  0  0  0  0  0  0  0  0  0  0  0
   -1.5000    7.7942    0.0000 C   0  0  0  0  0  0  0  0  0  0  0  0
   -3.0000    7.7942    0.0000 C   0  0  0  0  0  0  0  0  0  0  0  0
   -3.7500    6.4952    0.0000 C   0  0  0  0  0  0  0  0  0  0  0  0
   -3.0000    5.1962    0.0000 C   0  0  0  0  0  0  0  0  0  0  0  0
   -3.7500    3.8971    0.0000 N   0  0  0  0  0  0  0  0  0  0  0  0
   -1.5000    0.0000    0.0000 C   0  0  0  0  0  0  0  0  0  0  0  0
   -0.7500   -1.2990    0.0000 C   0  0  0  0  0  0  0  0  0  0  0  0
   -0.7500   -3.8971    0.0000 C   0  0  0  0  0  0  0  0  0  0  0  0
   -1.5000   -2.5981    0.0000 C   0  0  0  0  0  0  0  0  0  0  0  0
   -3.0000   -2.5981    0.0000 C   0  0  0  0  0  0  0  0  0  0  0  0
   -3.7500   -3.8971    0.0000 C   0  0  0  0  0  0  0  0  0  0  0  0
   -3.0000   -5.1962    0.0000 C   0  0  0  0  0  0  0  0  0  0  0  0
   -1.5000   -5.1962    0.0000 C   0  0  0  0  0  0  0  0  0  0  0  0
  1  2  1  0
  2  3  1  0
  3  4  1  0
  4  5  2  0
  5  6  1  0
  6  7  2  0
  7  8  1  0
  8  9  2  0
  8 10  1  0
 10 11  1  0
 11 12  2  0
 12 13  1  0
 13 14  2  0
 14 15  1  0
 15 16  2  0
 16 17  1  0
  7 18  1  0
 18 19  2  0
  2 20  1  0
 20 21  2  0
 21 22  1  0
 22 23  2  0
 23 24  1  0
 24 25  2  0
 19  4  1  0
 25 20  1  0
 16 11  1  0
M  END
>  <molecule_chembl_id>  (575) 
CHEMBL4464169

>  <canonical_smiles>  (575) 
CN(Cc1ccc(C(=O)Nc2ccccc2N)cc1)c1ccccc1

>  <pchembl_value_mean>  (575) 
6.3

>  <document_chembl_id>  (575) 
CHEMBL4351000

$$$$

     RDKit          2D

 20 20  0  0  0  0  0  0  0  0999 V2000
   12.7500   -3.8971    0.0000 O   0  0  0  0  0  0  0  0  0  0  0  0
   12.0000   -5.1962    0.0000 C   0  0  0  0  0  0  0  0  0  0  0  0
   10.5000   -5.1962    0.0000 C   0  0  0  0  0  0  0  0  0  0  0  0
    9.7500   -3.8971    0.0000 C   0  0  0  0  0  0  0  0  0  0  0  0
    8.2500   -3.8971    0.0000 C   0  0  0  0  0  0  0  0  0  0  0  0
    7.5000   -2.5981    0.0000 C   0  0  0  0  0  0  0  0  0  0  0  0
    6.0000   -2.5981    0.0000 C   0  0  0  0  0  0  0  0  0  0  0  0
    5.2500   -1.2990    0.0000 C   0  0  0  0  0  0  0  0  0  0  0  0
    6.0000    0.0000    0.0000 O   0  0  0  0  0  0  0  0  0  0  0  0
    3.7500   -1.2990    0.0000 C   0  0  0  0  0  0  0  0  0  0  0  0
    3.0000   -2.5981    0.0000 O   0  0  0  0  0  0  0  0  0  0  0  0
    3.0000    0.0000    0.0000 N   0  0  0  0  0  0  0  0  0  0  0  0
    1.5000    0.0000    0.0000 C   0  0  0  0  0  0  0  0  0  0  0  0
    0.7500   -1.2990    0.0000 C   0  0  0  0  0  0  0  0  0  0  0  0
   -0.7500   -1.2990    0.0000 C   0  0  0  0  0  0  0  0  0  0  0  0
   -1.5000    0.0000    0.0000 C   0  0  0  0  0  0  0  0  0  0  0  0
   -0.7500    1.2990    0.0000 C   0  0  0  0  0  0  0  0  0  0  0  0
    0.7500    1.2990    0.0000 C   0  0  0  0  0  0  0  0  0  0  0  0
   12.7500   -6.4952    0.0000 N   0  0  0  0  0  0  0  0  0  0  0  0
   14.2500   -6.4952    0.0000 O   0  0  0  0  0  0  0  0  0  0  0  0
  1  2  2  0
  2  3  1  0
  3  4  1  0
  4  5  1  0
  5  6  1  0
  6  7  1  0
  7  8  1  0
  8  9  1  0
  8 10  1  0
 10 11  2  0
 10 12  1  0
 12 13  1  0
 13 14  2  0
 14 15  1  0
 15 16  2  0
 16 17  1  0
 17 18  2  0
  2 19  1  0
 19 20  1  0
 18 13  1  0
M  END
>  <molecule_chembl_id>  (576) 
CHEMBL251009

>  <canonical_smiles>  (576) 
O=C(CCCCCC(O)C(=O)Nc1ccccc1)NO

>  <pchembl_value_mean>  (576) 
6.3

>  <document_chembl_id>  (576) 
CHEMBL1140532

$$$$

     RDKit          2D

 31 32  0  0  0  0  0  0  0  0999 V2000
    3.7500   -1.2990    0.0000 C   0  0  0  0  0  0  0  0  0  0  0  0
    3.0000    0.0000    0.0000 O   0  0  0  0  0  0  0  0  0  0  0  0
    1.5000    0.0000    0.0000 C   0  0  0  0  0  0  0  0  0  0  0  0
    0.7500   -1.2990    0.0000 C   0  0  0  0  0  0  0  0  0  0  0  0
   -0.7500   -1.2990    0.0000 C   0  0  0  0  0  0  0  0  0  0  0  0
   -1.5000    0.0000    0.0000 C   0  0  0  0  0  0  0  0  0  0  0  0
   -3.0000    0.0000    0.0000 C   0  0  0  0  0  0  0  0  0  0  0  0
   -3.7500    1.2990    0.0000 O   0  0  0  0  0  0  0  0  0  0  0  0
   -5.2500    1.2990    0.0000 C   0  0  0  0  0  0  0  0  0  0  0  0
   -6.0000    2.5981    0.0000 C   0  0  0  0  0  0  0  0  0  0  0  0
   -7.5000    2.5981    0.0000 C   0  0  0  0  0  0  0  0  0  0  0  0
   -8.2500    3.8971    0.0000 C   0  0  0  0  0  0  0  0  0  0  0  0
   -9.7500    3.8971    0.0000 C   0  0  0  0  0  0  0  0  0  0  0  0
  -10.5000    5.1962    0.0000 C   0  0  0  0  0  0  0  0  0  0  0  0
  -12.0000    5.1962    0.0000 C   0  0  0  0  0  0  0  0  0  0  0  0
  -12.7500    3.8971    0.0000 O   0  0  0  0  0  0  0  0  0  0  0  0
  -12.7500    6.4952    0.0000 N   0  0  0  0  0  0  0  0  0  0  0  0
  -14.2500    6.4952    0.0000 O   0  0  0  0  0  0  0  0  0  0  0  0
   -6.0000    0.0000    0.0000 C   0  0  0  0  0  0  0  0  0  0  0  0
   -5.2500   -1.2990    0.0000 O   0  0  0  0  0  0  0  0  0  0  0  0
   -7.5000    0.0000    0.0000 N   0  0  0  0  0  0  0  0  0  0  0  0
   -8.2500   -1.2990    0.0000 C   0  0  0  0  0  0  0  0  0  0  0  0
   -9.7500   -1.2990    0.0000 C   0  0  0  0  0  0  0  0  0  0  0  0
  -10.5000   -2.5981    0.0000 C   0  0  0  0  0  0  0  0  0  0  0  0
   -9.7500   -3.8971    0.0000 C   0  0  0  0  0  0  0  0  0  0  0  0
  -10.5000   -5.1962    0.0000 O   0  0  0  0  0  0  0  0  0  0  0  0
  -12.0000   -5.1962    0.0000 C   0  0  0  0  0  0  0  0  0  0  0  0
   -8.2500   -3.8971    0.0000 C   0  0  0  0  0  0  0  0  0  0  0  0
   -7.5000   -2.5981    0.0000 C   0  0  0  0  0  0  0  0  0  0  0  0
   -0.7500    1.2990    0.0000 C   0  0  0  0  0  0  0  0  0  0  0  0
    0.7500    1.2990    0.0000 C   0  0  0  0  0  0  0  0  0  0  0  0
  1  2  1  0
  2  3  1  0
  3  4  2  0
  4  5  1  0
  5  6  2  0
  6  7  1  0
  7  8  1  0
  8  9  1  0
  9 10  1  0
 10 11  1  0
 11 12  1  0
 12 13  1  0
 13 14  1  0
 14 15  1  0
 15 16  2  0
 15 17  1  0
 17 18  1  0
  9 19  1  0
 19 20  2  0
 19 21  1  0
 21 22  1  0
 22 23  2  0
 23 24  1  0
 24 25  2  0
 25 26  1  0
 26 27  1  0
 25 28  1  0
 28 29  2  0
  6 30  1  0
 30 31  2  0
 31  3  1  0
 29 22  1  0
M  END
>  <molecule_chembl_id>  (577) 
CHEMBL250005

>  <canonical_smiles>  (577) 
COc1ccc(COC(CCCCCC(=O)NO)C(=O)Nc2ccc(OC)cc2)cc1

>  <pchembl_value_mean>  (577) 
6.3

>  <document_chembl_id>  (577) 
CHEMBL1140532

$$$$

     RDKit          2D

 22 22  0  0  0  0  0  0  0  0999 V2000
    9.7500    1.2990    0.0000 C   0  0  0  0  0  0  0  0  0  0  0  0
    8.2500    1.2990    0.0000 C   0  0  0  0  0  0  0  0  0  0  0  0
    7.5000   -0.0000    0.0000 C   0  0  0  0  0  0  0  0  0  0  0  0
    6.0000    0.0000    0.0000 O   0  0  0  0  0  0  0  0  0  0  0  0
    5.2500   -1.2990    0.0000 C   0  0  0  0  0  0  0  0  0  0  0  0
    6.0000   -2.5981    0.0000 C   0  0  0  0  0  0  0  0  0  0  0  0
    7.5000   -2.5981    0.0000 C   0  0  0  0  0  0  0  0  0  0  0  0
    8.2500   -3.8971    0.0000 C   0  0  0  0  0  0  0  0  0  0  0  0
    9.7500   -3.8971    0.0000 C   0  0  0  0  0  0  0  0  0  0  0  0
   10.5000   -5.1962    0.0000 C   0  0  0  0  0  0  0  0  0  0  0  0
    9.7500   -6.4952    0.0000 O   0  0  0  0  0  0  0  0  0  0  0  0
   12.0000   -5.1962    0.0000 N   0  0  0  0  0  0  0  0  0  0  0  0
   12.7500   -6.4952    0.0000 O   0  0  0  0  0  0  0  0  0  0  0  0
    3.7500   -1.2990    0.0000 C   0  0  0  0  0  0  0  0  0  0  0  0
    3.0000   -2.5981    0.0000 O   0  0  0  0  0  0  0  0  0  0  0  0
    3.0000    0.0000    0.0000 N   0  0  0  0  0  0  0  0  0  0  0  0
    1.5000    0.0000    0.0000 C   0  0  0  0  0  0  0  0  0  0  0  0
    0.7500   -1.2990    0.0000 C   0  0  0  0  0  0  0  0  0  0  0  0
   -0.7500   -1.2990    0.0000 C   0  0  0  0  0  0  0  0  0  0  0  0
   -1.5000    0.0000    0.0000 C   0  0  0  0  0  0  0  0  0  0  0  0
   -0.7500    1.2990    0.0000 C   0  0  0  0  0  0  0  0  0  0  0  0
    0.7500    1.2990    0.0000 C   0  0  0  0  0  0  0  0  0  0  0  0
  1  2  1  0
  2  3  1  0
  3  4  1  0
  4  5  1  0
  5  6  1  0
  6  7  1  0
  7  8  1  0
  8  9  1  0
  9 10  1  0
 10 11  2  0
 10 12  1  0
 12 13  1  0
  5 14  1  0
 14 15  2  0
 14 16  1  0
 16 17  1  0
 17 18  2  0
 18 19  1  0
 19 20  2  0
 20 21  1  0
 21 22  2  0
 22 17  1  0
M  END
>  <molecule_chembl_id>  (578) 
CHEMBL251406

>  <canonical_smiles>  (578) 
CCCOC(CCCCC(=O)NO)C(=O)Nc1ccccc1

>  <pchembl_value_mean>  (578) 
6.3

>  <document_chembl_id>  (578) 
CHEMBL1140532

$$$$

     RDKit          2D

 33 35  0  0  0  0  0  0  0  0999 V2000
   -0.7500  -11.6913    0.0000 O   0  0  0  0  0  0  0  0  0  0  0  0
    0.7500  -11.6913    0.0000 C   0  0  0  0  0  0  0  0  0  0  0  0
    1.5000  -10.3923    0.0000 C   0  0  0  0  0  0  0  0  0  0  0  0
    0.7500   -9.0933    0.0000 C   0  0  0  0  0  0  0  0  0  0  0  0
    1.5000   -7.7942    0.0000 C   0  0  0  0  0  0  0  0  0  0  0  0
    0.7500   -6.4952    0.0000 C   0  0  0  0  0  0  0  0  0  0  0  0
    1.5000   -5.1962    0.0000 C   0  0  0  0  0  0  0  0  0  0  0  0
    0.7500   -3.8971    0.0000 C   0  0  0  0  0  0  0  0  0  0  0  0
    1.5000   -2.5981    0.0000 O   0  0  0  0  0  0  0  0  0  0  0  0
    0.7500   -1.2990    0.0000 C   0  0  0  0  0  0  0  0  0  0  0  0
    1.5000    0.0000    0.0000 C   0  0  0  0  0  0  0  0  0  0  0  0
    0.7500    1.2990    0.0000 C   0  0  0  0  0  0  0  0  0  0  0  0
   -0.7500    1.2990    0.0000 C   0  0  0  0  0  0  0  0  0  0  0  0
   -1.5000    0.0000    0.0000 C   0  0  0  0  0  0  0  0  0  0  0  0
   -3.0000    0.0000    0.0000 O   0  0  0  0  0  0  0  0  0  0  0  0
   -3.7500    1.2990    0.0000 C   0  0  0  0  0  0  0  0  0  0  0  0
   -3.0000    2.5981    0.0000 C   0  0  0  0  0  0  0  0  0  0  0  0
   -3.7500    3.8971    0.0000 C   0  0  0  0  0  0  0  0  0  0  0  0
   -5.2500    3.8971    0.0000 C   0  0  0  0  0  0  0  0  0  0  0  0
   -6.0000    2.5981    0.0000 C   0  0  0  0  0  0  0  0  0  0  0  0
   -5.2500    1.2990    0.0000 C   0  0  0  0  0  0  0  0  0  0  0  0
   -0.7500   -1.2990    0.0000 C   0  0  0  0  0  0  0  0  0  0  0  0
   -0.7500   -3.8971    0.0000 C   0  0  0  0  0  0  0  0  0  0  0  0
   -1.5000   -2.5981    0.0000 O   0  0  0  0  0  0  0  0  0  0  0  0
   -1.5000   -5.1962    0.0000 N   0  0  0  0  0  0  0  0  0  0  0  0
   -3.0000   -5.1962    0.0000 C   0  0  0  0  0  0  0  0  0  0  0  0
   -3.7500   -3.8971    0.0000 C   0  0  0  0  0  0  0  0  0  0  0  0
   -5.2500   -3.8971    0.0000 C   0  0  0  0  0  0  0  0  0  0  0  0
   -6.0000   -5.1962    0.0000 C   0  0  0  0  0  0  0  0  0  0  0  0
   -5.2500   -6.4952    0.0000 C   0  0  0  0  0  0  0  0  0  0  0  0
   -3.7500   -6.4952    0.0000 C   0  0  0  0  0  0  0  0  0  0  0  0
    1.5000  -12.9904    0.0000 N   0  0  0  0  0  0  0  0  0  0  0  0
    0.7500  -14.2894    0.0000 O   0  0  0  0  0  0  0  0  0  0  0  0
  1  2  2  0
  2  3  1  0
  3  4  1  0
  4  5  1  0
  5  6  1  0
  6  7  1  0
  7  8  1  0
  8  9  1  0
  9 10  1  0
 10 11  2  0
 11 12  1  0
 12 13  2  0
 13 14  1  0
 14 15  1  0
 15 16  1  0
 16 17  2  0
 17 18  1  0
 18 19  2  0
 19 20  1  0
 20 21  2  0
 14 22  2  0
  8 23  1  0
 23 24  2  0
 23 25  1  0
 25 26  1  0
 26 27  2  0
 27 28  1  0
 28 29  2  0
 29 30  1  0
 30 31  2  0
  2 32  1  0
 32 33  1  0
 22 10  1  0
 31 26  1  0
 21 16  1  0
M  END
>  <molecule_chembl_id>  (579) 
CHEMBL400482

>  <canonical_smiles>  (579) 
O=C(CCCCCC(Oc1cccc(Oc2ccccc2)c1)C(=O)Nc1ccccc1)NO

>  <pchembl_value_mean>  (579) 
6.3

>  <document_chembl_id>  (579) 
CHEMBL1140532

$$$$

     RDKit          2D

 28 30  0  0  0  0  0  0  0  0999 V2000
    3.7500   -1.2990    0.0000 C   0  0  0  0  0  0  0  0  0  0  0  0
    3.0000    0.0000    0.0000 O   0  0  0  0  0  0  0  0  0  0  0  0
    1.5000    0.0000    0.0000 C   0  0  0  0  0  0  0  0  0  0  0  0
    0.7500   -1.2990    0.0000 C   0  0  0  0  0  0  0  0  0  0  0  0
   -0.7500   -1.2990    0.0000 C   0  0  0  0  0  0  0  0  0  0  0  0
   -1.5000    0.0000    0.0000 C   0  0  0  0  0  0  0  0  0  0  0  0
   -3.0000    0.0000    0.0000 N   0  0  0  0  0  0  0  0  0  0  0  0
   -3.7500    1.2990    0.0000 C   0  0  0  0  0  0  0  0  0  0  0  0
   -5.2500    1.2990    0.0000 C   0  0  0  0  0  0  0  0  0  0  0  0
   -6.0000    2.5981    0.0000 C   0  0  0  0  0  0  0  0  0  0  0  0
   -7.5000    2.5981    0.0000 C   0  0  0  0  0  0  0  0  0  0  0  0
   -8.2500    1.2990    0.0000 C   0  0  0  0  0  0  0  0  0  0  0  0
   -9.7500    1.2990    0.0000 C   0  0  0  0  0  0  0  0  0  0  0  0
  -10.5000    0.0000    0.0000 O   0  0  0  0  0  0  0  0  0  0  0  0
  -10.5000    2.5981    0.0000 N   0  0  0  0  0  0  0  0  0  0  0  0
  -12.0000    2.5981    0.0000 C   0  0  0  0  0  0  0  0  0  0  0  0
  -12.7500    3.8971    0.0000 C   0  0  0  0  0  0  0  0  0  0  0  0
  -14.2500    3.8971    0.0000 C   0  0  0  0  0  0  0  0  0  0  0  0
  -15.0000    2.5981    0.0000 C   0  0  0  0  0  0  0  0  0  0  0  0
  -14.2500    1.2990    0.0000 C   0  0  0  0  0  0  0  0  0  0  0  0
  -12.7500    1.2990    0.0000 C   0  0  0  0  0  0  0  0  0  0  0  0
  -12.0000    0.0000    0.0000 N   0  0  0  0  0  0  0  0  0  0  0  0
   -7.5000    0.0000    0.0000 C   0  0  0  0  0  0  0  0  0  0  0  0
   -6.0000    0.0000    0.0000 C   0  0  0  0  0  0  0  0  0  0  0  0
   -0.7500    1.2990    0.0000 C   0  0  0  0  0  0  0  0  0  0  0  0
    0.7500    1.2990    0.0000 C   0  0  0  0  0  0  0  0  0  0  0  0
    1.5000    2.5981    0.0000 O   0  0  0  0  0  0  0  0  0  0  0  0
    0.7500    3.8971    0.0000 C   0  0  0  0  0  0  0  0  0  0  0  0
  1  2  1  0
  2  3  1  0
  3  4  2  0
  4  5  1  0
  5  6  2  0
  6  7  1  0
  7  8  1  0
  8  9  1  0
  9 10  2  0
 10 11  1  0
 11 12  2  0
 12 13  1  0
 13 14  2  0
 13 15  1  0
 15 16  1  0
 16 17  2  0
 17 18  1  0
 18 19  2  0
 19 20  1  0
 20 21  2  0
 21 22  1  0
 12 23  1  0
 23 24  2  0
  6 25  1  0
 25 26  2  0
 26 27  1  0
 27 28  1  0
 26  3  1  0
 24  9  1  0
 21 16  1  0
M  END
>  <molecule_chembl_id>  (580) 
CHEMBL211625

>  <canonical_smiles>  (580) 
COc1ccc(NCc2ccc(C(=O)Nc3ccccc3N)cc2)cc1OC

>  <pchembl_value_mean>  (580) 
6.3

>  <document_chembl_id>  (580) 
CHEMBL1138236

$$$$

     RDKit          2D

 20 20  0  0  0  0  0  0  0  0999 V2000
    3.7500   -1.2990    0.0000 C   0  0  0  0  0  0  0  0  0  0  0  0
    3.0000    0.0000    0.0000 N   0  0  0  0  0  0  0  0  0  0  0  0
    3.7500    1.2990    0.0000 C   0  0  0  0  0  0  0  0  0  0  0  0
    1.5000    0.0000    0.0000 C   0  0  0  0  0  0  0  0  0  0  0  0
    0.7500   -1.2990    0.0000 C   0  0  0  0  0  0  0  0  0  0  0  0
   -0.7500   -1.2990    0.0000 C   0  0  0  0  0  0  0  0  0  0  0  0
   -1.5000    0.0000    0.0000 C   0  0  0  0  0  0  0  0  0  0  0  0
   -3.0000    0.0000    0.0000 C   0  0  0  0  0  0  0  0  0  0  0  0
   -3.7500    1.2990    0.0000 N   0  0  0  0  0  0  0  0  0  0  0  0
   -5.2500    1.2990    0.0000 C   0  0  0  0  0  0  0  0  0  0  0  0
   -6.0000    0.0000    0.0000 O   0  0  0  0  0  0  0  0  0  0  0  0
   -6.0000    2.5981    0.0000 N   0  0  0  0  0  0  0  0  0  0  0  0
   -7.5000    2.5981    0.0000 C   0  0  0  0  0  0  0  0  0  0  0  0
   -8.2500    3.8971    0.0000 C   0  0  0  0  0  0  0  0  0  0  0  0
   -9.7500    3.8971    0.0000 C   0  0  0  0  0  0  0  0  0  0  0  0
  -10.5000    2.5981    0.0000 O   0  0  0  0  0  0  0  0  0  0  0  0
  -10.5000    5.1962    0.0000 N   0  0  0  0  0  0  0  0  0  0  0  0
  -12.0000    5.1962    0.0000 O   0  0  0  0  0  0  0  0  0  0  0  0
   -0.7500    1.2990    0.0000 C   0  0  0  0  0  0  0  0  0  0  0  0
    0.7500    1.2990    0.0000 C   0  0  0  0  0  0  0  0  0  0  0  0
  1  2  1  0
  2  3  1  0
  2  4  1  0
  4  5  2  0
  5  6  1  0
  6  7  2  0
  7  8  1  0
  8  9  1  0
  9 10  1  0
 10 11  2  0
 10 12  1  0
 12 13  1  0
 13 14  1  0
 14 15  1  0
 15 16  2  0
 15 17  1  0
 17 18  1  0
  7 19  1  0
 19 20  2  0
 20  4  1  0
M  END
>  <molecule_chembl_id>  (581) 
CHEMBL227119

>  <canonical_smiles>  (581) 
CN(C)c1ccc(CNC(=O)NCCC(=O)NO)cc1

>  <pchembl_value_mean>  (581) 
6.31

>  <document_chembl_id>  (581) 
CHEMBL1145385

$$$$

     RDKit          2D

 46 50  0  0  0  0  0  0  0  0999 V2000
    1.9979  -12.6093    0.0000 C   0  0  0  0  0  0  0  0  0  0  0  0
    2.3097  -11.1421    0.0000 O   0  0  0  0  0  0  0  0  0  0  0  0
    1.1950  -10.1384    0.0000 C   0  0  0  0  0  0  0  0  0  0  0  0
   -0.2316  -10.6019    0.0000 C   0  0  0  0  0  0  0  0  0  0  0  0
   -1.3463   -9.5982    0.0000 C   0  0  0  0  0  0  0  0  0  0  0  0
   -1.0344   -8.1310    0.0000 C   0  0  0  0  0  0  0  0  0  0  0  0
   -2.1491   -7.1273    0.0000 C   0  0  0  0  0  0  0  0  0  0  0  0
   -3.5757   -7.5908    0.0000 O   0  0  0  0  0  0  0  0  0  0  0  0
   -1.8373   -5.6601    0.0000 N   0  0  0  0  0  0  0  0  0  0  0  0
   -2.9520   -4.6564    0.0000 C   0  0  0  0  0  0  0  0  0  0  0  0
   -2.6401   -3.1891    0.0000 C   0  0  0  0  0  0  0  0  0  0  0  0
   -1.2135   -2.7256    0.0000 C   0  0  0  0  0  0  0  0  0  0  0  0
   -0.0000   -3.6073    0.0000 C   0  0  0  0  0  0  0  0  0  0  0  0
    1.2135   -2.7256    0.0000 N   0  0  0  0  0  0  0  0  0  0  0  0
    0.7500   -1.2990    0.0000 C   0  0  0  0  0  0  0  0  0  0  0  0
    1.5000    0.0000    0.0000 C   0  0  0  0  0  0  0  0  0  0  0  0
    0.7500    1.2990    0.0000 C   0  0  0  0  0  0  0  0  0  0  0  0
   -0.7500    1.2990    0.0000 C   0  0  0  0  0  0  0  0  0  0  0  0
   -1.5000    0.0000    0.0000 C   0  0  0  0  0  0  0  0  0  0  0  0
   -0.7500   -1.2990    0.0000 C   0  0  0  0  0  0  0  0  0  0  0  0
   -4.3786   -5.1199    0.0000 C   0  0  0  0  0  0  0  0  0  0  0  0
   -5.4933   -4.1162    0.0000 O   0  0  0  0  0  0  0  0  0  0  0  0
   -4.6904   -6.5871    0.0000 N   0  0  0  0  0  0  0  0  0  0  0  0
   -6.1170   -7.0506    0.0000 C   0  0  0  0  0  0  0  0  0  0  0  0
   -6.4289   -8.5179    0.0000 C   0  0  0  0  0  0  0  0  0  0  0  0
   -7.8555   -8.9814    0.0000 C   0  0  0  0  0  0  0  0  0  0  0  0
   -8.1673  -10.4486    0.0000 C   0  0  0  0  0  0  0  0  0  0  0  0
   -9.5939  -10.9121    0.0000 C   0  0  0  0  0  0  0  0  0  0  0  0
   -9.9058  -12.3794    0.0000 C   0  0  0  0  0  0  0  0  0  0  0  0
   -8.7911  -13.3831    0.0000 O   0  0  0  0  0  0  0  0  0  0  0  0
  -11.3324  -12.8429    0.0000 N   0  0  0  0  0  0  0  0  0  0  0  0
  -11.6442  -14.3101    0.0000 C   0  0  0  0  0  0  0  0  0  0  0  0
  -13.0708  -14.7736    0.0000 C   0  0  0  0  0  0  0  0  0  0  0  0
  -13.3827  -16.2409    0.0000 C   0  0  0  0  0  0  0  0  0  0  0  0
  -14.8093  -16.7044    0.0000 C   0  0  0  0  0  0  0  0  0  0  0  0
  -15.9240  -15.7007    0.0000 C   0  0  0  0  0  0  0  0  0  0  0  0
  -17.3506  -16.1642    0.0000 C   0  0  0  0  0  0  0  0  0  0  0  0
  -17.6624  -17.6314    0.0000 C   0  0  0  0  0  0  0  0  0  0  0  0
  -16.5477  -18.6351    0.0000 C   0  0  0  0  0  0  0  0  0  0  0  0
  -15.1211  -18.1716    0.0000 C   0  0  0  0  0  0  0  0  0  0  0  0
  -12.2680  -17.2445    0.0000 C   0  0  0  0  0  0  0  0  0  0  0  0
  -10.8414  -16.7810    0.0000 C   0  0  0  0  0  0  0  0  0  0  0  0
  -10.5295  -15.3138    0.0000 C   0  0  0  0  0  0  0  0  0  0  0  0
   -9.1029  -14.8503    0.0000 N   0  0  0  0  0  0  0  0  0  0  0  0
    0.3922   -7.6675    0.0000 C   0  0  0  0  0  0  0  0  0  0  0  0
    1.5069   -8.6712    0.0000 C   0  0  0  0  0  0  0  0  0  0  0  0
  1  2  1  0
  2  3  1  0
  3  4  2  0
  4  5  1  0
  5  6  2  0
  6  7  1  0
  7  8  2  0
  7  9  1  0
  9 10  1  0
 10 11  1  0
 11 12  1  0
 12 13  2  0
 13 14  1  0
 14 15  1  0
 15 16  2  0
 16 17  1  0
 17 18  2  0
 18 19  1  0
 19 20  2  0
 10 21  1  0
 21 22  2  0
 21 23  1  0
 23 24  1  0
 24 25  1  0
 25 26  1  0
 26 27  1  0
 27 28  1  0
 28 29  1  0
 29 30  2  0
 29 31  1  0
 31 32  1  0
 32 33  2  0
 33 34  1  0
 34 35  1  0
 35 36  2  0
 36 37  1  0
 37 38  2  0
 38 39  1  0
 39 40  2  0
 34 41  2  0
 41 42  1  0
 42 43  2  0
 43 44  1  0
  6 45  1  0
 45 46  2  0
 46  3  1  0
 20 12  1  0
 43 32  1  0
 20 15  1  0
 40 35  1  0
M  END
>  <molecule_chembl_id>  (582) 
CHEMBL4086561

>  <canonical_smiles>  (582) 
COc1ccc(C(=O)NC(Cc2c[nH]c3ccccc23)C(=O)NCCCCCC(=O)Nc2cc(-c3ccccc3)ccc2N)cc1

>  <pchembl_value_mean>  (582) 
6.31

>  <document_chembl_id>  (582) 
CHEMBL4020724

$$$$

     RDKit          2D

 23 25  0  0  0  0  0  0  0  0999 V2000
   -7.5000   -5.1962    0.0000 O   0  0  0  0  0  0  0  0  0  0  0  0
   -6.0000   -5.1962    0.0000 C   0  0  0  0  0  0  0  0  0  0  0  0
   -5.2500   -6.4952    0.0000 N   0  0  0  0  0  0  0  0  0  0  0  0
   -6.0000   -7.7942    0.0000 O   0  0  0  0  0  0  0  0  0  0  0  0
   -5.2500   -3.8971    0.0000 C   0  0  0  0  0  0  0  0  0  0  0  0
   -3.7500   -3.8971    0.0000 C   0  0  0  0  0  0  0  0  0  0  0  0
   -3.0000   -2.5981    0.0000 N   0  0  0  0  0  0  0  0  0  0  0  0
   -3.7500   -1.2990    0.0000 C   0  0  0  0  0  0  0  0  0  0  0  0
   -3.0000    0.0000    0.0000 N   0  0  0  0  0  0  0  0  0  0  0  0
   -3.7500    1.2990    0.0000 C   0  0  0  0  0  0  0  0  0  0  0  0
   -2.3797    1.9091    0.0000 C   0  0  0  0  0  0  0  0  0  0  0  0
   -1.1662    1.0275    0.0000 C   0  0  0  0  0  0  0  0  0  0  0  0
    0.2042    1.6376    0.0000 C   0  0  0  0  0  0  0  0  0  0  0  0
    0.3610    3.1294    0.0000 C   0  0  0  0  0  0  0  0  0  0  0  0
   -0.8526    4.0110    0.0000 C   0  0  0  0  0  0  0  0  0  0  0  0
   -0.6958    5.5028    0.0000 Cl  0  0  0  0  0  0  0  0  0  0  0  0
   -2.2229    3.4009    0.0000 C   0  0  0  0  0  0  0  0  0  0  0  0
   -4.2135    2.7256    0.0000 C   0  0  0  0  0  0  0  0  0  0  0  0
   -5.7135    2.7256    0.0000 C   0  0  0  0  0  0  0  0  0  0  0  0
   -6.1771    1.2990    0.0000 C   0  0  0  0  0  0  0  0  0  0  0  0
   -4.9635    0.4174    0.0000 C   0  0  0  0  0  0  0  0  0  0  0  0
   -5.2500   -1.2990    0.0000 N   0  0  0  0  0  0  0  0  0  0  0  0
   -6.0000   -2.5981    0.0000 C   0  0  0  0  0  0  0  0  0  0  0  0
  1  2  2  0
  2  3  1  0
  3  4  1  0
  2  5  1  0
  5  6  2  0
  6  7  1  0
  7  8  2  0
  8  9  1  0
  9 10  1  0
 10 11  1  0
 11 12  2  0
 12 13  1  0
 13 14  2  0
 14 15  1  0
 15 16  1  0
 15 17  2  0
 10 18  1  0
 18 19  1  0
 19 20  1  0
 20 21  1  0
  8 22  1  0
 22 23  2  0
 23  5  1  0
 21 10  1  0
 17 11  1  0
M  END
>  <molecule_chembl_id>  (583) 
CHEMBL3656022

>  <canonical_smiles>  (583) 
O=C(NO)c1cnc(NC2(c3cccc(Cl)c3)CCCC2)nc1

>  <pchembl_value_mean>  (583) 
6.31

>  <document_chembl_id>  (583) 
CHEMBL3639071

$$$$

     RDKit          2D

 26 29  0  0  0  0  0  0  0  0999 V2000
   -0.8980   -7.8928    0.0000 C   0  0  0  0  0  0  0  0  0  0  0  0
    0.5692   -8.2047    0.0000 C   0  0  0  0  0  0  0  0  0  0  0  0
    1.1793   -9.5750    0.0000 N   0  0  0  0  0  0  0  0  0  0  0  0
    2.6711   -9.4182    0.0000 O   0  0  0  0  0  0  0  0  0  0  0  0
    2.9829   -7.9510    0.0000 C   0  0  0  0  0  0  0  0  0  0  0  0
    4.3533   -7.3409    0.0000 C   0  0  0  0  0  0  0  0  0  0  0  0
    1.6839   -7.2010    0.0000 C   0  0  0  0  0  0  0  0  0  0  0  0
    1.5271   -5.7092    0.0000 C   0  0  0  0  0  0  0  0  0  0  0  0
    0.1568   -5.0991    0.0000 N   0  0  0  0  0  0  0  0  0  0  0  0
   -0.0000   -3.6073    0.0000 C   0  0  0  0  0  0  0  0  0  0  0  0
   -1.2135   -2.7256    0.0000 S   0  0  0  0  0  0  0  0  0  0  0  0
   -0.7500   -1.2990    0.0000 C   0  0  0  0  0  0  0  0  0  0  0  0
    0.7500   -1.2990    0.0000 C   0  0  0  0  0  0  0  0  0  0  0  0
    1.2135   -2.7256    0.0000 C   0  0  0  0  0  0  0  0  0  0  0  0
    2.5838   -3.3357    0.0000 C   0  0  0  0  0  0  0  0  0  0  0  0
    3.7974   -2.4540    0.0000 O   0  0  0  0  0  0  0  0  0  0  0  0
    2.7406   -4.8275    0.0000 N   0  0  0  0  0  0  0  0  0  0  0  0
    1.5000    0.0000    0.0000 C   0  0  0  0  0  0  0  0  0  0  0  0
    0.7500    1.2990    0.0000 C   0  0  0  0  0  0  0  0  0  0  0  0
   -0.7500    1.2990    0.0000 N   0  0  0  0  0  0  0  0  0  0  0  0
   -1.5000    2.5981    0.0000 C   0  0  0  0  0  0  0  0  0  0  0  0
   -0.7500    3.8971    0.0000 C   0  0  0  0  0  0  0  0  0  0  0  0
    0.7500    3.8971    0.0000 O   0  0  0  0  0  0  0  0  0  0  0  0
   -1.5000    5.1962    0.0000 N   0  0  0  0  0  0  0  0  0  0  0  0
   -0.7500    6.4952    0.0000 O   0  0  0  0  0  0  0  0  0  0  0  0
   -1.5000    0.0000    0.0000 C   0  0  0  0  0  0  0  0  0  0  0  0
  1  2  1  0
  2  3  2  0
  3  4  1  0
  4  5  1  0
  5  6  1  0
  5  7  2  0
  7  8  1  0
  8  9  2  0
  9 10  1  0
 10 11  1  0
 11 12  1  0
 12 13  2  0
 13 14  1  0
 14 15  1  0
 15 16  2  0
 15 17  1  0
 13 18  1  0
 18 19  1  0
 19 20  1  0
 20 21  1  0
 21 22  1  0
 22 23  2  0
 22 24  1  0
 24 25  1  0
 20 26  1  0
  7  2  1  0
 17  8  1  0
 14 10  2  0
 26 12  1  0
M  END
>  <molecule_chembl_id>  (584) 
CHEMBL4553337

>  <canonical_smiles>  (584) 
Cc1noc(C)c1-c1nc2sc3c(c2c(=O)[nH]1)CCN(CC(=O)NO)C3

>  <pchembl_value_mean>  (584) 
6.31

>  <document_chembl_id>  (584) 
CHEMBL4342471

$$$$

     RDKit          2D

 39 42  0  0  0  0  0  0  0  0999 V2000
    3.0000    0.0000    0.0000 C   0  0  0  0  0  0  0  0  0  0  0  0
    1.5000    0.0000    0.0000 C   0  0  0  0  0  0  0  0  0  0  0  0
    0.7500   -1.2990    0.0000 C   0  0  0  0  0  0  0  0  0  0  0  0
   -0.7500   -1.2990    0.0000 C   0  0  0  0  0  0  0  0  0  0  0  0
   -1.5000   -2.5981    0.0000 C   0  0  0  0  0  0  0  0  0  0  0  0
   -1.5000    0.0000    0.0000 C   0  0  0  0  0  0  0  0  0  0  0  0
   -0.7500    1.2990    0.0000 C   0  0  0  0  0  0  0  0  0  0  0  0
   -1.5000    2.5981    0.0000 C   0  0  0  0  0  0  0  0  0  0  0  0
   -3.0000    2.5981    0.0000 O   0  0  0  0  0  0  0  0  0  0  0  0
   -0.7500    3.8971    0.0000 N   0  0  0  0  0  0  0  0  0  0  0  0
    0.7500    3.8971    0.0000 C   0  0  0  0  0  0  0  0  0  0  0  0
    1.5000    5.1962    0.0000 C   0  0  0  0  0  0  0  0  0  0  0  0
    0.7500    6.4952    0.0000 O   0  0  0  0  0  0  0  0  0  0  0  0
    3.0000    5.1962    0.0000 N   0  0  0  0  0  0  0  0  0  0  0  0
    3.7500    6.4952    0.0000 C   0  0  0  0  0  0  0  0  0  0  0  0
    5.2500    6.4952    0.0000 C   0  0  0  0  0  0  0  0  0  0  0  0
    6.0000    5.1962    0.0000 C   0  0  0  0  0  0  0  0  0  0  0  0
    7.5000    5.1962    0.0000 C   0  0  0  0  0  0  0  0  0  0  0  0
    8.2500    6.4952    0.0000 C   0  0  0  0  0  0  0  0  0  0  0  0
    7.5000    7.7942    0.0000 C   0  0  0  0  0  0  0  0  0  0  0  0
    6.0000    7.7942    0.0000 C   0  0  0  0  0  0  0  0  0  0  0  0
   -1.5000    5.1962    0.0000 C   0  0  0  0  0  0  0  0  0  0  0  0
   -3.0000    5.1962    0.0000 C   0  0  0  0  0  0  0  0  0  0  0  0
   -3.7500    6.4952    0.0000 C   0  0  0  0  0  0  0  0  0  0  0  0
   -5.2500    6.4952    0.0000 C   0  0  0  0  0  0  0  0  0  0  0  0
   -6.0000    5.1962    0.0000 C   0  0  0  0  0  0  0  0  0  0  0  0
   -7.5000    5.1962    0.0000 C   0  0  0  0  0  0  0  0  0  0  0  0
   -8.2500    3.8971    0.0000 O   0  0  0  0  0  0  0  0  0  0  0  0
   -8.2500    6.4952    0.0000 N   0  0  0  0  0  0  0  0  0  0  0  0
   -9.7500    6.4952    0.0000 C   0  0  0  0  0  0  0  0  0  0  0  0
  -10.5000    7.7942    0.0000 C   0  0  0  0  0  0  0  0  0  0  0  0
  -12.0000    7.7942    0.0000 C   0  0  0  0  0  0  0  0  0  0  0  0
  -12.7500    6.4952    0.0000 C   0  0  0  0  0  0  0  0  0  0  0  0
  -12.0000    5.1962    0.0000 C   0  0  0  0  0  0  0  0  0  0  0  0
  -10.5000    5.1962    0.0000 C   0  0  0  0  0  0  0  0  0  0  0  0
   -9.7500    3.8971    0.0000 N   0  0  0  0  0  0  0  0  0  0  0  0
   -5.2500    3.8971    0.0000 C   0  0  0  0  0  0  0  0  0  0  0  0
   -3.7500    3.8971    0.0000 C   0  0  0  0  0  0  0  0  0  0  0  0
    0.7500    1.2990    0.0000 C   0  0  0  0  0  0  0  0  0  0  0  0
  1  2  1  0
  2  3  2  0
  3  4  1  0
  4  5  1  0
  4  6  2  0
  6  7  1  0
  7  8  1  0
  8  9  2  0
  8 10  1  0
 10 11  1  0
 11 12  1  0
 12 13  2  0
 12 14  1  0
 14 15  1  0
 15 16  1  0
 16 17  2  0
 17 18  1  0
 18 19  2  0
 19 20  1  0
 20 21  2  0
 10 22  1  0
 22 23  1  0
 23 24  2  0
 24 25  1  0
 25 26  2  0
 26 27  1  0
 27 28  2  0
 27 29  1  0
 29 30  1  0
 30 31  2  0
 31 32  1  0
 32 33  2  0
 33 34  1  0
 34 35  2  0
 35 36  1  0
 26 37  1  0
 37 38  2  0
  7 39  2  0
 39  2  1  0
 21 16  1  0
 38 23  1  0
 35 30  1  0
M  END
>  <molecule_chembl_id>  (585) 
CHEMBL4459617

>  <canonical_smiles>  (585) 
Cc1cc(C)cc(C(=O)N(CC(=O)NCc2ccccc2)Cc2ccc(C(=O)Nc3ccccc3N)cc2)c1

>  <pchembl_value_mean>  (585) 
6.31

>  <document_chembl_id>  (585) 
CHEMBL4334526

$$$$

     RDKit          2D

 40 44  0  0  0  0  0  0  0  0999 V2000
   -4.3786   -5.1199    0.0000 C   0  0  0  0  0  0  0  0  0  0  0  0
   -2.9520   -4.6564    0.0000 C   0  0  0  0  0  0  0  0  0  0  0  0
   -2.6401   -3.1891    0.0000 C   0  0  0  0  0  0  0  0  0  0  0  0
   -1.2135   -2.7256    0.0000 C   0  0  0  0  0  0  0  0  0  0  0  0
   -0.0000   -3.6073    0.0000 N   0  0  0  0  0  0  0  0  0  0  0  0
    1.2135   -2.7256    0.0000 N   0  0  0  0  0  0  0  0  0  0  0  0
    2.6401   -3.1891    0.0000 C   0  0  0  0  0  0  0  0  0  0  0  0
    0.7500   -1.2990    0.0000 C   0  0  0  0  0  0  0  0  0  0  0  0
    1.5000    0.0000    0.0000 C   0  0  0  0  0  0  0  0  0  0  0  0
    3.0000    0.0000    0.0000 O   0  0  0  0  0  0  0  0  0  0  0  0
    0.7500    1.2990    0.0000 N   0  0  0  0  0  0  0  0  0  0  0  0
   -0.7500    1.2990    0.0000 C   0  0  0  0  0  0  0  0  0  0  0  0
   -1.5000    2.5981    0.0000 C   0  0  0  0  0  0  0  0  0  0  0  0
   -0.7500    3.8971    0.0000 C   0  0  0  0  0  0  0  0  0  0  0  0
   -1.5000    5.1962    0.0000 C   0  0  0  0  0  0  0  0  0  0  0  0
   -0.7500    6.4952    0.0000 N   0  0  0  0  0  0  0  0  0  0  0  0
    0.7500    6.4952    0.0000 C   0  0  0  0  0  0  0  0  0  0  0  0
    1.5000    5.1962    0.0000 C   0  0  0  0  0  0  0  0  0  0  0  0
    3.0000    5.1962    0.0000 C   0  0  0  0  0  0  0  0  0  0  0  0
    3.7500    6.4952    0.0000 N   0  0  0  0  0  0  0  0  0  0  0  0
    5.2500    6.4952    0.0000 C   0  0  0  0  0  0  0  0  0  0  0  0
    6.0000    5.1962    0.0000 N   0  0  0  0  0  0  0  0  0  0  0  0
    7.5000    5.1962    0.0000 C   0  0  0  0  0  0  0  0  0  0  0  0
    8.2500    6.4952    0.0000 C   0  0  0  0  0  0  0  0  0  0  0  0
    9.7500    6.4952    0.0000 C   0  0  0  0  0  0  0  0  0  0  0  0
   10.5000    7.7942    0.0000 O   0  0  0  0  0  0  0  0  0  0  0  0
   10.5000    5.1962    0.0000 N   0  0  0  0  0  0  0  0  0  0  0  0
   12.0000    5.1962    0.0000 O   0  0  0  0  0  0  0  0  0  0  0  0
    7.5000    7.7942    0.0000 C   0  0  0  0  0  0  0  0  0  0  0  0
    6.0000    7.7942    0.0000 N   0  0  0  0  0  0  0  0  0  0  0  0
    3.0000    7.7942    0.0000 C   0  0  0  0  0  0  0  0  0  0  0  0
    1.5000    7.7942    0.0000 C   0  0  0  0  0  0  0  0  0  0  0  0
   -3.0000    5.1962    0.0000 C   0  0  0  0  0  0  0  0  0  0  0  0
   -3.7500    3.8971    0.0000 C   0  0  0  0  0  0  0  0  0  0  0  0
   -3.0000    2.5981    0.0000 C   0  0  0  0  0  0  0  0  0  0  0  0
   -3.7500    1.2990    0.0000 O   0  0  0  0  0  0  0  0  0  0  0  0
   -5.2500    1.2990    0.0000 C   0  0  0  0  0  0  0  0  0  0  0  0
   -6.0000    0.0000    0.0000 C   0  0  0  0  0  0  0  0  0  0  0  0
   -1.5000    0.0000    0.0000 N   0  0  0  0  0  0  0  0  0  0  0  0
   -0.7500   -1.2990    0.0000 C   0  0  0  0  0  0  0  0  0  0  0  0
  1  2  1  0
  2  3  1  0
  3  4  1  0
  4  5  2  0
  5  6  1  0
  6  7  1  0
  6  8  1  0
  8  9  1  0
  9 10  2  0
  9 11  1  0
 11 12  1  0
 12 13  1  0
 13 14  2  0
 14 15  1  0
 15 16  1  0
 16 17  1  0
 17 18  1  0
 18 19  1  0
 19 20  1  0
 20 21  1  0
 21 22  2  0
 22 23  1  0
 23 24  2  0
 24 25  1  0
 25 26  2  0
 25 27  1  0
 27 28  1  0
 24 29  1  0
 29 30  2  0
 20 31  1  0
 31 32  1  0
 15 33  2  0
 33 34  1  0
 34 35  2  0
 35 36  1  0
 36 37  1  0
 37 38  1  0
 12 39  2  0
 39 40  1  0
 40  4  1  0
 40  8  2  0
 35 13  1  0
 32 17  1  0
 30 21  1  0
M  END
>  <molecule_chembl_id>  (586) 
CHEMBL3907730

>  <canonical_smiles>  (586) 
CCCc1nn(C)c2c(=O)[nH]c(-c3cc(NC4CCN(c5ncc(C(=O)NO)cn5)CC4)ccc3OCC)nc12

>  <pchembl_value_mean>  (586) 
6.31

>  <document_chembl_id>  (586) 
CHEMBL3860059

$$$$

     RDKit          2D

 35 39  0  0  0  0  0  0  0  0999 V2000
    3.0000    0.0000    0.0000 N   0  0  0  0  0  0  0  0  0  0  0  0
    1.5000    0.0000    0.0000 C   0  0  0  0  0  0  0  0  0  0  0  0
    0.7500   -1.2990    0.0000 C   0  0  0  0  0  0  0  0  0  0  0  0
   -0.7500   -1.2990    0.0000 C   0  0  0  0  0  0  0  0  0  0  0  0
   -1.5000    0.0000    0.0000 C   0  0  0  0  0  0  0  0  0  0  0  0
   -0.7500    1.2990    0.0000 C   0  0  0  0  0  0  0  0  0  0  0  0
    0.7500    1.2990    0.0000 C   0  0  0  0  0  0  0  0  0  0  0  0
    1.5000    2.5981    0.0000 N   0  0  0  0  0  0  0  0  0  0  0  0
    0.7500    3.8971    0.0000 C   0  0  0  0  0  0  0  0  0  0  0  0
   -0.7500    3.8971    0.0000 O   0  0  0  0  0  0  0  0  0  0  0  0
    1.5000    5.1962    0.0000 C   0  0  0  0  0  0  0  0  0  0  0  0
    3.0000    5.1962    0.0000 C   0  0  0  0  0  0  0  0  0  0  0  0
    3.7500    6.4952    0.0000 C   0  0  0  0  0  0  0  0  0  0  0  0
    3.0000    7.7942    0.0000 C   0  0  0  0  0  0  0  0  0  0  0  0
    3.7500    9.0933    0.0000 C   0  0  0  0  0  0  0  0  0  0  0  0
    5.2500    9.0933    0.0000 N   0  0  0  0  0  0  0  0  0  0  0  0
    6.0000   10.3923    0.0000 C   0  0  0  0  0  0  0  0  0  0  0  0
    5.3899   11.7626    0.0000 N   0  0  0  0  0  0  0  0  0  0  0  0
    6.5046   12.7663    0.0000 C   0  0  0  0  0  0  0  0  0  0  0  0
    6.3478   14.2581    0.0000 C   0  0  0  0  0  0  0  0  0  0  0  0
    7.5613   15.1398    0.0000 C   0  0  0  0  0  0  0  0  0  0  0  0
    7.4046   16.6316    0.0000 C   0  0  0  0  0  0  0  0  0  0  0  0
    6.0342   17.2417    0.0000 C   0  0  0  0  0  0  0  0  0  0  0  0
    4.8207   16.3600    0.0000 C   0  0  0  0  0  0  0  0  0  0  0  0
    4.9775   14.8682    0.0000 C   0  0  0  0  0  0  0  0  0  0  0  0
    7.8037   12.0163    0.0000 C   0  0  0  0  0  0  0  0  0  0  0  0
    9.1740   12.6264    0.0000 C   0  0  0  0  0  0  0  0  0  0  0  0
   10.3875   11.7447    0.0000 C   0  0  0  0  0  0  0  0  0  0  0  0
   11.7578   12.3549    0.0000 C   0  0  0  0  0  0  0  0  0  0  0  0
   11.9146   13.8466    0.0000 C   0  0  0  0  0  0  0  0  0  0  0  0
   10.7011   14.7283    0.0000 C   0  0  0  0  0  0  0  0  0  0  0  0
    9.3308   14.1182    0.0000 C   0  0  0  0  0  0  0  0  0  0  0  0
    7.4918   10.5491    0.0000 S   0  0  0  0  0  0  0  0  0  0  0  0
    1.5000    7.7942    0.0000 C   0  0  0  0  0  0  0  0  0  0  0  0
    0.7500    6.4952    0.0000 C   0  0  0  0  0  0  0  0  0  0  0  0
  1  2  1  0
  2  3  2  0
  3  4  1  0
  4  5  2  0
  5  6  1  0
  6  7  2  0
  7  8  1  0
  8  9  1  0
  9 10  2  0
  9 11  1  0
 11 12  2  0
 12 13  1  0
 13 14  2  0
 14 15  1  0
 15 16  1  0
 16 17  1  0
 17 18  2  0
 18 19  1  0
 19 20  1  0
 20 21  2  0
 21 22  1  0
 22 23  2  0
 23 24  1  0
 24 25  2  0
 19 26  1  0
 26 27  1  0
 27 28  2  0
 28 29  1  0
 29 30  2  0
 30 31  1  0
 31 32  2  0
 26 33  1  0
 14 34  1  0
 34 35  2  0
  7  2  1  0
 35 11  1  0
 33 17  1  0
 25 20  1  0
 32 27  1  0
M  END
>  <molecule_chembl_id>  (587) 
CHEMBL2407725

>  <canonical_smiles>  (587) 
Nc1ccccc1NC(=O)c1ccc(CNC2=NC(c3ccccc3)C(c3ccccc3)S2)cc1

>  <pchembl_value_mean>  (587) 
6.32

>  <document_chembl_id>  (587) 
CHEMBL2407081

$$$$

     RDKit          2D

 39 43  0  0  0  0  0  0  0  0999 V2000
   -9.4590    4.8414    0.0000 C   0  0  0  0  0  0  0  0  0  0  0  0
   -9.7709    3.3742    0.0000 O   0  0  0  0  0  0  0  0  0  0  0  0
   -8.6562    2.3705    0.0000 C   0  0  0  0  0  0  0  0  0  0  0  0
   -7.2296    2.8340    0.0000 C   0  0  0  0  0  0  0  0  0  0  0  0
   -6.1149    1.8303    0.0000 C   0  0  0  0  0  0  0  0  0  0  0  0
   -4.6883    2.2939    0.0000 C   0  0  0  0  0  0  0  0  0  0  0  0
   -3.5736    1.2902    0.0000 N   0  0  0  0  0  0  0  0  0  0  0  0
   -2.1470    1.7537    0.0000 C   0  0  0  0  0  0  0  0  0  0  0  0
   -1.8351    3.2209    0.0000 N   0  0  0  0  0  0  0  0  0  0  0  0
   -0.4086    3.6844    0.0000 C   0  0  0  0  0  0  0  0  0  0  0  0
   -0.0967    5.1517    0.0000 N   0  0  0  0  0  0  0  0  0  0  0  0
    1.3299    5.6152    0.0000 C   0  0  0  0  0  0  0  0  0  0  0  0
    1.6418    7.0824    0.0000 C   0  0  0  0  0  0  0  0  0  0  0  0
    3.0684    7.5459    0.0000 C   0  0  0  0  0  0  0  0  0  0  0  0
    3.3802    9.0132    0.0000 C   0  0  0  0  0  0  0  0  0  0  0  0
    2.2655   10.0169    0.0000 C   0  0  0  0  0  0  0  0  0  0  0  0
    2.5774   11.4841    0.0000 C   0  0  0  0  0  0  0  0  0  0  0  0
    1.4627   12.4878    0.0000 O   0  0  0  0  0  0  0  0  0  0  0  0
    4.0040   11.9476    0.0000 N   0  0  0  0  0  0  0  0  0  0  0  0
    4.3158   13.4148    0.0000 C   0  0  0  0  0  0  0  0  0  0  0  0
    5.7424   13.8783    0.0000 C   0  0  0  0  0  0  0  0  0  0  0  0
    6.0543   15.3456    0.0000 C   0  0  0  0  0  0  0  0  0  0  0  0
    4.9396   16.3493    0.0000 C   0  0  0  0  0  0  0  0  0  0  0  0
    3.5130   15.8857    0.0000 C   0  0  0  0  0  0  0  0  0  0  0  0
    3.2011   14.4185    0.0000 C   0  0  0  0  0  0  0  0  0  0  0  0
    1.7745   13.9550    0.0000 N   0  0  0  0  0  0  0  0  0  0  0  0
    0.8389    9.5533    0.0000 C   0  0  0  0  0  0  0  0  0  0  0  0
    0.5271    8.0861    0.0000 C   0  0  0  0  0  0  0  0  0  0  0  0
    0.7062    2.6807    0.0000 N   0  0  0  0  0  0  0  0  0  0  0  0
    0.3943    1.2135    0.0000 C   0  0  0  0  0  0  0  0  0  0  0  0
    1.2760    0.0000    0.0000 N   0  0  0  0  0  0  0  0  0  0  0  0
    0.3943   -1.2135    0.0000 C   0  0  0  0  0  0  0  0  0  0  0  0
   -1.0323   -0.7500    0.0000 C   0  0  0  0  0  0  0  0  0  0  0  0
   -1.0323    0.7500    0.0000 C   0  0  0  0  0  0  0  0  0  0  0  0
   -6.4268    0.3631    0.0000 C   0  0  0  0  0  0  0  0  0  0  0  0
   -7.8533   -0.1004    0.0000 C   0  0  0  0  0  0  0  0  0  0  0  0
   -8.1652   -1.5676    0.0000 O   0  0  0  0  0  0  0  0  0  0  0  0
   -9.5918   -2.0312    0.0000 C   0  0  0  0  0  0  0  0  0  0  0  0
   -8.9681    0.9033    0.0000 C   0  0  0  0  0  0  0  0  0  0  0  0
  1  2  1  0
  2  3  1  0
  3  4  2  0
  4  5  1  0
  5  6  1  0
  6  7  1  0
  7  8  1  0
  8  9  2  0
  9 10  1  0
 10 11  1  0
 11 12  1  0
 12 13  1  0
 13 14  2  0
 14 15  1  0
 15 16  2  0
 16 17  1  0
 17 18  2  0
 17 19  1  0
 19 20  1  0
 20 21  2  0
 21 22  1  0
 22 23  2  0
 23 24  1  0
 24 25  2  0
 25 26  1  0
 16 27  1  0
 27 28  2  0
 10 29  2  0
 29 30  1  0
 30 31  1  0
 31 32  1  0
 32 33  2  0
 33 34  1  0
  5 35  2  0
 35 36  1  0
 36 37  1  0
 37 38  1  0
 36 39  2  0
 39  3  1  0
 34  8  1  0
 28 13  1  0
 34 30  2  0
 25 20  1  0
M  END
>  <molecule_chembl_id>  (588) 
CHEMBL4764787

>  <canonical_smiles>  (588) 
COc1cc(CNc2nc(NCc3ccc(C(=O)Nc4ccccc4N)cc3)nc3[nH]ccc23)cc(OC)c1

>  <pchembl_value_mean>  (588) 
6.32

>  <document_chembl_id>  (588) 
CHEMBL4732212

$$$$

     RDKit          2D

 19 20  0  0  0  0  0  0  0  0999 V2000
    3.0000    0.0000    0.0000 C   0  0  0  0  0  0  0  0  0  0  0  0
    1.5000    0.0000    0.0000 C   0  0  0  0  0  0  0  0  0  0  0  0
    0.7500   -1.2990    0.0000 C   0  0  0  0  0  0  0  0  0  0  0  0
   -0.7500   -1.2990    0.0000 C   0  0  0  0  0  0  0  0  0  0  0  0
   -1.5000   -2.5981    0.0000 C   0  0  0  0  0  0  0  0  0  0  0  0
   -1.5000    0.0000    0.0000 C   0  0  0  0  0  0  0  0  0  0  0  0
   -0.7500    1.2990    0.0000 C   0  0  0  0  0  0  0  0  0  0  0  0
   -1.5000    2.5981    0.0000 N   0  0  0  0  0  0  0  0  0  0  0  0
   -0.7500    3.8971    0.0000 C   0  0  0  0  0  0  0  0  0  0  0  0
    0.7500    3.8971    0.0000 N   0  0  0  0  0  0  0  0  0  0  0  0
    1.5000    5.1962    0.0000 C   0  0  0  0  0  0  0  0  0  0  0  0
    0.7500    6.4952    0.0000 C   0  0  0  0  0  0  0  0  0  0  0  0
    1.5000    7.7942    0.0000 C   0  0  0  0  0  0  0  0  0  0  0  0
    0.7500    9.0933    0.0000 O   0  0  0  0  0  0  0  0  0  0  0  0
    3.0000    7.7942    0.0000 N   0  0  0  0  0  0  0  0  0  0  0  0
    3.7500    9.0933    0.0000 O   0  0  0  0  0  0  0  0  0  0  0  0
   -0.7500    6.4952    0.0000 C   0  0  0  0  0  0  0  0  0  0  0  0
   -1.5000    5.1962    0.0000 N   0  0  0  0  0  0  0  0  0  0  0  0
    0.7500    1.2990    0.0000 C   0  0  0  0  0  0  0  0  0  0  0  0
  1  2  1  0
  2  3  2  0
  3  4  1  0
  4  5  1  0
  4  6  2  0
  6  7  1  0
  7  8  1  0
  8  9  1  0
  9 10  2  0
 10 11  1  0
 11 12  2  0
 12 13  1  0
 13 14  2  0
 13 15  1  0
 15 16  1  0
 12 17  1  0
 17 18  2  0
  7 19  2  0
 19  2  1  0
 18  9  1  0
M  END
>  <molecule_chembl_id>  (589) 
CHEMBL3652239

>  <canonical_smiles>  (589) 
Cc1cc(C)cc(Nc2ncc(C(=O)NO)cn2)c1

>  <pchembl_value_mean>  (589) 
6.32

>  <document_chembl_id>  (589) 
CHEMBL3639071

$$$$

     RDKit          2D

 22 24  0  0  0  0  0  0  0  0999 V2000
    3.7500   -1.2990    0.0000 C   0  0  0  0  0  0  0  0  0  0  0  0
    3.0000    0.0000    0.0000 O   0  0  0  0  0  0  0  0  0  0  0  0
    1.5000    0.0000    0.0000 C   0  0  0  0  0  0  0  0  0  0  0  0
    0.7500   -1.2990    0.0000 C   0  0  0  0  0  0  0  0  0  0  0  0
   -0.7500   -1.2990    0.0000 C   0  0  0  0  0  0  0  0  0  0  0  0
   -1.5000    0.0000    0.0000 C   0  0  0  0  0  0  0  0  0  0  0  0
   -0.7500    1.2990    0.0000 C   0  0  0  0  0  0  0  0  0  0  0  0
    0.7500    1.2990    0.0000 C   0  0  0  0  0  0  0  0  0  0  0  0
    1.5000    2.5981    0.0000 C   0  0  0  0  0  0  0  0  0  0  0  0
    0.3509    3.5623    0.0000 N   0  0  0  0  0  0  0  0  0  0  0  0
    0.6114    5.0395    0.0000 C   0  0  0  0  0  0  0  0  0  0  0  0
    2.0209    5.5525    0.0000 N   0  0  0  0  0  0  0  0  0  0  0  0
    2.2814    7.0297    0.0000 C   0  0  0  0  0  0  0  0  0  0  0  0
    1.1324    7.9939    0.0000 C   0  0  0  0  0  0  0  0  0  0  0  0
    1.3928    9.4711    0.0000 C   0  0  0  0  0  0  0  0  0  0  0  0
    0.2438   10.4353    0.0000 O   0  0  0  0  0  0  0  0  0  0  0  0
    2.8024    9.9841    0.0000 N   0  0  0  0  0  0  0  0  0  0  0  0
    3.0628   11.4613    0.0000 O   0  0  0  0  0  0  0  0  0  0  0  0
   -0.2772    7.4809    0.0000 C   0  0  0  0  0  0  0  0  0  0  0  0
   -0.5377    6.0037    0.0000 N   0  0  0  0  0  0  0  0  0  0  0  0
    2.6491    3.5623    0.0000 C   0  0  0  0  0  0  0  0  0  0  0  0
    2.9095    2.0850    0.0000 C   0  0  0  0  0  0  0  0  0  0  0  0
  1  2  1  0
  2  3  1  0
  3  4  2  0
  4  5  1  0
  5  6  2  0
  6  7  1  0
  7  8  2  0
  8  9  1  0
  9 10  1  0
 10 11  1  0
 11 12  2  0
 12 13  1  0
 13 14  2  0
 14 15  1  0
 15 16  2  0
 15 17  1  0
 17 18  1  0
 14 19  1  0
 19 20  2  0
  9 21  1  0
 21 22  1  0
  8  3  1  0
 22  9  1  0
 20 11  1  0
M  END
>  <molecule_chembl_id>  (590) 
CHEMBL3656002

>  <canonical_smiles>  (590) 
COc1ccccc1C1(Nc2ncc(C(=O)NO)cn2)CC1

>  <pchembl_value_mean>  (590) 
6.32

>  <document_chembl_id>  (590) 
CHEMBL3639071

$$$$

     RDKit          2D

 23 25  0  0  0  0  0  0  0  0999 V2000
   -7.5000   -5.1962    0.0000 O   0  0  0  0  0  0  0  0  0  0  0  0
   -6.0000   -5.1962    0.0000 C   0  0  0  0  0  0  0  0  0  0  0  0
   -5.2500   -6.4952    0.0000 N   0  0  0  0  0  0  0  0  0  0  0  0
   -6.0000   -7.7942    0.0000 O   0  0  0  0  0  0  0  0  0  0  0  0
   -5.2500   -3.8971    0.0000 C   0  0  0  0  0  0  0  0  0  0  0  0
   -3.7500   -3.8971    0.0000 C   0  0  0  0  0  0  0  0  0  0  0  0
   -3.0000   -2.5981    0.0000 N   0  0  0  0  0  0  0  0  0  0  0  0
   -3.7500   -1.2990    0.0000 C   0  0  0  0  0  0  0  0  0  0  0  0
   -3.0000    0.0000    0.0000 N   0  0  0  0  0  0  0  0  0  0  0  0
   -3.7500    1.2990    0.0000 C   0  0  0  0  0  0  0  0  0  0  0  0
   -2.3797    1.9091    0.0000 C   0  0  0  0  0  0  0  0  0  0  0  0
   -1.1662    1.0275    0.0000 C   0  0  0  0  0  0  0  0  0  0  0  0
    0.2042    1.6376    0.0000 C   0  0  0  0  0  0  0  0  0  0  0  0
    0.3610    3.1294    0.0000 C   0  0  0  0  0  0  0  0  0  0  0  0
   -0.8526    4.0110    0.0000 C   0  0  0  0  0  0  0  0  0  0  0  0
   -0.6958    5.5028    0.0000 F   0  0  0  0  0  0  0  0  0  0  0  0
   -2.2229    3.4009    0.0000 C   0  0  0  0  0  0  0  0  0  0  0  0
   -4.2135    2.7256    0.0000 C   0  0  0  0  0  0  0  0  0  0  0  0
   -5.7135    2.7256    0.0000 C   0  0  0  0  0  0  0  0  0  0  0  0
   -6.1771    1.2990    0.0000 C   0  0  0  0  0  0  0  0  0  0  0  0
   -4.9635    0.4174    0.0000 C   0  0  0  0  0  0  0  0  0  0  0  0
   -5.2500   -1.2990    0.0000 N   0  0  0  0  0  0  0  0  0  0  0  0
   -6.0000   -2.5981    0.0000 C   0  0  0  0  0  0  0  0  0  0  0  0
  1  2  2  0
  2  3  1  0
  3  4  1  0
  2  5  1  0
  5  6  2  0
  6  7  1  0
  7  8  2  0
  8  9  1  0
  9 10  1  0
 10 11  1  0
 11 12  2  0
 12 13  1  0
 13 14  2  0
 14 15  1  0
 15 16  1  0
 15 17  2  0
 10 18  1  0
 18 19  1  0
 19 20  1  0
 20 21  1  0
  8 22  1  0
 22 23  2  0
 23  5  1  0
 21 10  1  0
 17 11  1  0
M  END
>  <molecule_chembl_id>  (591) 
CHEMBL3656020

>  <canonical_smiles>  (591) 
O=C(NO)c1cnc(NC2(c3cccc(F)c3)CCCC2)nc1

>  <pchembl_value_mean>  (591) 
6.32

>  <document_chembl_id>  (591) 
CHEMBL3639071

$$$$

     RDKit          2D

 26 29  0  0  0  0  0  0  0  0999 V2000
    7.5000   -7.7942    0.0000 O   0  0  0  0  0  0  0  0  0  0  0  0
    6.0000   -7.7942    0.0000 C   0  0  0  0  0  0  0  0  0  0  0  0
    5.2500   -9.0933    0.0000 N   0  0  0  0  0  0  0  0  0  0  0  0
    6.0000  -10.3923    0.0000 O   0  0  0  0  0  0  0  0  0  0  0  0
    5.2500   -6.4952    0.0000 C   0  0  0  0  0  0  0  0  0  0  0  0
    3.7500   -6.4952    0.0000 C   0  0  0  0  0  0  0  0  0  0  0  0
    3.0000   -5.1962    0.0000 C   0  0  0  0  0  0  0  0  0  0  0  0
    3.7500   -3.8971    0.0000 C   0  0  0  0  0  0  0  0  0  0  0  0
    3.0000   -2.5981    0.0000 N   0  0  0  0  0  0  0  0  0  0  0  0
    1.5000   -2.5981    0.0000 C   0  0  0  0  0  0  0  0  0  0  0  0
    0.7500   -1.2990    0.0000 C   0  0  0  0  0  0  0  0  0  0  0  0
    1.5000    0.0000    0.0000 C   0  0  0  0  0  0  0  0  0  0  0  0
    0.7500    1.2990    0.0000 C   0  0  0  0  0  0  0  0  0  0  0  0
   -0.7500    1.2990    0.0000 C   0  0  0  0  0  0  0  0  0  0  0  0
   -1.5000    0.0000    0.0000 C   0  0  0  0  0  0  0  0  0  0  0  0
   -0.7500   -1.2990    0.0000 C   0  0  0  0  0  0  0  0  0  0  0  0
   -1.5000   -2.5981    0.0000 N   0  0  0  0  0  0  0  0  0  0  0  0
   -0.7500   -3.8971    0.0000 C   0  0  0  0  0  0  0  0  0  0  0  0
   -1.5000   -5.1962    0.0000 C   0  0  0  0  0  0  0  0  0  0  0  0
   -0.7500   -6.4952    0.0000 C   0  0  0  0  0  0  0  0  0  0  0  0
    0.7500   -6.4952    0.0000 C   0  0  0  0  0  0  0  0  0  0  0  0
    1.5000   -7.7942    0.0000 Br  0  0  0  0  0  0  0  0  0  0  0  0
    1.5000   -5.1962    0.0000 C   0  0  0  0  0  0  0  0  0  0  0  0
    0.7500   -3.8971    0.0000 C   0  0  0  0  0  0  0  0  0  0  0  0
    5.2500   -3.8971    0.0000 C   0  0  0  0  0  0  0  0  0  0  0  0
    6.0000   -5.1962    0.0000 C   0  0  0  0  0  0  0  0  0  0  0  0
  1  2  2  0
  2  3  1  0
  3  4  1  0
  2  5  1  0
  5  6  2  0
  6  7  1  0
  7  8  2  0
  8  9  1  0
  9 10  1  0
 10 11  1  0
 11 12  2  0
 12 13  1  0
 13 14  2  0
 14 15  1  0
 15 16  2  0
 16 17  1  0
 17 18  2  0
 18 19  1  0
 19 20  2  0
 20 21  1  0
 21 22  1  0
 21 23  2  0
 23 24  1  0
  8 25  1  0
 25 26  2  0
 26  5  1  0
 24 10  2  0
 16 11  1  0
 24 18  1  0
M  END
>  <molecule_chembl_id>  (592) 
CHEMBL4796066

>  <canonical_smiles>  (592) 
O=C(NO)c1ccc(Nc2c3ccccc3nc3ccc(Br)cc23)cc1

>  <pchembl_value_mean>  (592) 
6.32

>  <document_chembl_id>  (592) 
CHEMBL4680220

$$$$

     RDKit          2D

 26 28  0  0  0  0  0  0  0  0999 V2000
   -3.7500   -3.8971    0.0000 O   0  0  0  0  0  0  0  0  0  0  0  0
   -3.0000   -5.1962    0.0000 C   0  0  0  0  0  0  0  0  0  0  0  0
   -3.7500   -6.4952    0.0000 C   0  0  0  0  0  0  0  0  0  0  0  0
   -5.2500   -6.4952    0.0000 C   0  0  0  0  0  0  0  0  0  0  0  0
   -6.0000   -7.7942    0.0000 C   0  0  0  0  0  0  0  0  0  0  0  0
   -7.5000   -7.7942    0.0000 C   0  0  0  0  0  0  0  0  0  0  0  0
   -8.2500   -9.0933    0.0000 C   0  0  0  0  0  0  0  0  0  0  0  0
   -7.6399  -10.4636    0.0000 C   0  0  0  0  0  0  0  0  0  0  0  0
   -8.7546  -11.4673    0.0000 C   0  0  0  0  0  0  0  0  0  0  0  0
   -8.5978  -12.9591    0.0000 C   0  0  0  0  0  0  0  0  0  0  0  0
   -7.2275  -13.5692    0.0000 O   0  0  0  0  0  0  0  0  0  0  0  0
   -9.8113  -13.8407    0.0000 N   0  0  0  0  0  0  0  0  0  0  0  0
   -9.6546  -15.3325    0.0000 O   0  0  0  0  0  0  0  0  0  0  0  0
  -10.0537  -10.7173    0.0000 N   0  0  0  0  0  0  0  0  0  0  0  0
   -9.7418   -9.2501    0.0000 O   0  0  0  0  0  0  0  0  0  0  0  0
   -1.5000   -5.1962    0.0000 N   0  0  0  0  0  0  0  0  0  0  0  0
   -0.7500   -3.8971    0.0000 C   0  0  0  0  0  0  0  0  0  0  0  0
    0.7500   -3.8971    0.0000 C   0  0  0  0  0  0  0  0  0  0  0  0
    1.5000   -2.5981    0.0000 N   0  0  0  0  0  0  0  0  0  0  0  0
    0.7500   -1.2990    0.0000 C   0  0  0  0  0  0  0  0  0  0  0  0
    1.5000    0.0000    0.0000 C   0  0  0  0  0  0  0  0  0  0  0  0
    0.7500    1.2990    0.0000 C   0  0  0  0  0  0  0  0  0  0  0  0
   -0.7500    1.2990    0.0000 C   0  0  0  0  0  0  0  0  0  0  0  0
   -1.5000    0.0000    0.0000 C   0  0  0  0  0  0  0  0  0  0  0  0
   -0.7500   -1.2990    0.0000 C   0  0  0  0  0  0  0  0  0  0  0  0
   -1.5000   -2.5981    0.0000 C   0  0  0  0  0  0  0  0  0  0  0  0
  1  2  2  0
  2  3  1  0
  3  4  1  0
  4  5  1  0
  5  6  1  0
  6  7  1  0
  7  8  2  0
  8  9  1  0
  9 10  1  0
 10 11  2  0
 10 12  1  0
 12 13  1  0
  9 14  2  0
 14 15  1  0
  2 16  1  0
 16 17  1  0
 17 18  2  0
 18 19  1  0
 19 20  2  0
 20 21  1  0
 21 22  2  0
 22 23  1  0
 23 24  2  0
 24 25  1  0
 25 26  2  0
 15  7  1  0
 26 17  1  0
 25 20  1  0
M  END
>  <molecule_chembl_id>  (593) 
CHEMBL511715

>  <canonical_smiles>  (593) 
O=C(CCCCc1cc(C(=O)NO)no1)Nc1cnc2ccccc2c1

>  <pchembl_value_mean>  (593) 
6.33

>  <document_chembl_id>  (593) 
CHEMBL1136917

$$$$

     RDKit          2D

 42 45  0  0  0  0  0  0  0  0999 V2000
    5.4627   -4.5501    0.0000 C   0  0  0  0  0  0  0  0  0  0  0  0
    3.9955   -4.2382    0.0000 C   0  0  0  0  0  0  0  0  0  0  0  0
    3.5320   -2.8116    0.0000 C   0  0  0  0  0  0  0  0  0  0  0  0
    2.9918   -5.3529    0.0000 C   0  0  0  0  0  0  0  0  0  0  0  0
    1.5000   -5.1962    0.0000 C   0  0  0  0  0  0  0  0  0  0  0  0
    0.7500   -3.8971    0.0000 C   0  0  0  0  0  0  0  0  0  0  0  0
   -0.7500   -3.8971    0.0000 O   0  0  0  0  0  0  0  0  0  0  0  0
    1.5000   -2.5981    0.0000 N   0  0  0  0  0  0  0  0  0  0  0  0
    0.7500   -1.2990    0.0000 C   0  0  0  0  0  0  0  0  0  0  0  0
    1.5000    0.0000    0.0000 C   0  0  0  0  0  0  0  0  0  0  0  0
    0.7500    1.2990    0.0000 C   0  0  0  0  0  0  0  0  0  0  0  0
   -0.7500    1.2990    0.0000 C   0  0  0  0  0  0  0  0  0  0  0  0
   -1.5000    0.0000    0.0000 C   0  0  0  0  0  0  0  0  0  0  0  0
   -0.7500   -1.2990    0.0000 C   0  0  0  0  0  0  0  0  0  0  0  0
    0.8899   -6.5665    0.0000 C   0  0  0  0  0  0  0  0  0  0  0  0
   -0.5773   -6.8783    0.0000 C   0  0  0  0  0  0  0  0  0  0  0  0
   -1.5810   -5.7636    0.0000 C   0  0  0  0  0  0  0  0  0  0  0  0
   -3.0482   -6.0755    0.0000 C   0  0  0  0  0  0  0  0  0  0  0  0
   -3.5118   -7.5021    0.0000 C   0  0  0  0  0  0  0  0  0  0  0  0
   -2.5081   -8.6168    0.0000 C   0  0  0  0  0  0  0  0  0  0  0  0
   -1.0409   -8.3049    0.0000 C   0  0  0  0  0  0  0  0  0  0  0  0
    2.0046   -7.5702    0.0000 C   0  0  0  0  0  0  0  0  0  0  0  0
    1.8478   -9.0619    0.0000 C   0  0  0  0  0  0  0  0  0  0  0  0
    0.4775   -9.6721    0.0000 C   0  0  0  0  0  0  0  0  0  0  0  0
    0.3207  -11.1638    0.0000 C   0  0  0  0  0  0  0  0  0  0  0  0
    1.5342  -12.0455    0.0000 C   0  0  0  0  0  0  0  0  0  0  0  0
    1.3774  -13.5373    0.0000 F   0  0  0  0  0  0  0  0  0  0  0  0
    2.9046  -11.4354    0.0000 C   0  0  0  0  0  0  0  0  0  0  0  0
    3.0613   -9.9436    0.0000 C   0  0  0  0  0  0  0  0  0  0  0  0
    3.3037   -6.8202    0.0000 N   0  0  0  0  0  0  0  0  0  0  0  0
    4.6740   -7.4303    0.0000 C   0  0  0  0  0  0  0  0  0  0  0  0
    5.8875   -6.5486    0.0000 C   0  0  0  0  0  0  0  0  0  0  0  0
    7.2578   -7.1587    0.0000 C   0  0  0  0  0  0  0  0  0  0  0  0
    7.4146   -8.6505    0.0000 O   0  0  0  0  0  0  0  0  0  0  0  0
    8.4713   -6.2770    0.0000 C   0  0  0  0  0  0  0  0  0  0  0  0
    9.8417   -6.8871    0.0000 C   0  0  0  0  0  0  0  0  0  0  0  0
    9.9984   -8.3789    0.0000 O   0  0  0  0  0  0  0  0  0  0  0  0
   11.0552   -6.0054    0.0000 C   0  0  0  0  0  0  0  0  0  0  0  0
   12.4255   -6.6156    0.0000 C   0  0  0  0  0  0  0  0  0  0  0  0
   12.5823   -8.1073    0.0000 O   0  0  0  0  0  0  0  0  0  0  0  0
   13.6390   -5.7339    0.0000 N   0  0  0  0  0  0  0  0  0  0  0  0
   15.0093   -6.3440    0.0000 O   0  0  0  0  0  0  0  0  0  0  0  0
  1  2  1  0
  2  3  1  0
  2  4  1  0
  4  5  2  0
  5  6  1  0
  6  7  2  0
  6  8  1  0
  8  9  1  0
  9 10  2  0
 10 11  1  0
 11 12  2  0
 12 13  1  0
 13 14  2  0
  5 15  1  0
 15 16  1  0
 16 17  2  0
 17 18  1  0
 18 19  2  0
 19 20  1  0
 20 21  2  0
 15 22  2  0
 22 23  1  0
 23 24  2  0
 24 25  1  0
 25 26  2  0
 26 27  1  0
 26 28  1  0
 28 29  2  0
 22 30  1  0
 30 31  1  0
 31 32  1  0
 32 33  1  0
 33 34  1  0
 33 35  1  0
 35 36  1  0
 36 37  1  0
 36 38  1  0
 38 39  1  0
 39 40  2  0
 39 41  1  0
 41 42  1  0
 30  4  1  0
 14  9  1  0
 21 16  1  0
 29 23  1  0
M  END
>  <molecule_chembl_id>  (594) 
CHEMBL2347008

>  <canonical_smiles>  (594) 
CC(C)c1c(C(=O)Nc2ccccc2)c(-c2ccccc2)c(-c2ccc(F)cc2)n1CCC(O)CC(O)CC(=O)NO

>  <pchembl_value_mean>  (594) 
6.33

>  <document_chembl_id>  (594) 
CHEMBL2346500

$$$$

     RDKit          2D

 33 36  0  0  0  0  0  0  0  0999 V2000
    3.0000   -5.1962    0.0000 C   0  0  0  0  0  0  0  0  0  0  0  0
    1.5000   -5.1962    0.0000 O   0  0  0  0  0  0  0  0  0  0  0  0
    0.7500   -3.8971    0.0000 C   0  0  0  0  0  0  0  0  0  0  0  0
    1.5000   -2.5981    0.0000 N   0  0  0  0  0  0  0  0  0  0  0  0
    0.7500   -1.2990    0.0000 C   0  0  0  0  0  0  0  0  0  0  0  0
    1.5000    0.0000    0.0000 C   0  0  0  0  0  0  0  0  0  0  0  0
    0.7500    1.2990    0.0000 C   0  0  0  0  0  0  0  0  0  0  0  0
   -0.7500    1.2990    0.0000 C   0  0  0  0  0  0  0  0  0  0  0  0
   -1.5000    0.0000    0.0000 C   0  0  0  0  0  0  0  0  0  0  0  0
   -0.7500   -1.2990    0.0000 C   0  0  0  0  0  0  0  0  0  0  0  0
   -1.5000   -2.5981    0.0000 C   0  0  0  0  0  0  0  0  0  0  0  0
   -0.7500   -3.8971    0.0000 C   0  0  0  0  0  0  0  0  0  0  0  0
   -1.5000   -5.1962    0.0000 C   0  0  0  0  0  0  0  0  0  0  0  0
   -0.8899   -6.5665    0.0000 C   0  0  0  0  0  0  0  0  0  0  0  0
   -2.0046   -7.5702    0.0000 N   0  0  0  0  0  0  0  0  0  0  0  0
   -3.3037   -6.8202    0.0000 C   0  0  0  0  0  0  0  0  0  0  0  0
   -4.6740   -7.4303    0.0000 C   0  0  0  0  0  0  0  0  0  0  0  0
   -4.8308   -8.9221    0.0000 N   0  0  0  0  0  0  0  0  0  0  0  0
   -5.8875   -6.5486    0.0000 C   0  0  0  0  0  0  0  0  0  0  0  0
   -7.2578   -7.1587    0.0000 C   0  0  0  0  0  0  0  0  0  0  0  0
   -8.4713   -6.2770    0.0000 C   0  0  0  0  0  0  0  0  0  0  0  0
   -9.8417   -6.8871    0.0000 C   0  0  0  0  0  0  0  0  0  0  0  0
  -11.0552   -6.0054    0.0000 C   0  0  0  0  0  0  0  0  0  0  0  0
  -12.4255   -6.6156    0.0000 C   0  0  0  0  0  0  0  0  0  0  0  0
  -12.5823   -8.1073    0.0000 O   0  0  0  0  0  0  0  0  0  0  0  0
  -13.6390   -5.7339    0.0000 C   0  0  0  0  0  0  0  0  0  0  0  0
  -15.0656   -6.1974    0.0000 N   0  0  0  0  0  0  0  0  0  0  0  0
  -15.9473   -4.9839    0.0000 C   0  0  0  0  0  0  0  0  0  0  0  0
  -15.0656   -3.7703    0.0000 C   0  0  0  0  0  0  0  0  0  0  0  0
  -15.5291   -2.3438    0.0000 C   0  0  0  0  0  0  0  0  0  0  0  0
  -14.5254   -1.2290    0.0000 O   0  0  0  0  0  0  0  0  0  0  0  0
  -13.6390   -4.2339    0.0000 O   0  0  0  0  0  0  0  0  0  0  0  0
   -2.9918   -5.3529    0.0000 N   0  0  0  0  0  0  0  0  0  0  0  0
  1  2  1  0
  2  3  1  0
  3  4  2  0
  4  5  1  0
  5  6  2  0
  6  7  1  0
  7  8  2  0
  8  9  1  0
  9 10  2  0
 10 11  1  0
 11 12  2  0
 12 13  1  0
 13 14  2  0
 14 15  1  0
 15 16  2  0
 16 17  1  0
 17 18  1  0
 17 19  1  0
 19 20  1  0
 20 21  1  0
 21 22  1  0
 22 23  1  0
 23 24  1  0
 24 25  2  0
 24 26  1  0
 26 27  2  0
 27 28  1  0
 28 29  2  0
 29 30  1  0
 30 31  1  0
 29 32  1  0
 16 33  1  0
 12  3  1  0
 33 13  1  0
 10  5  1  0
 32 26  1  0
M  END
>  <molecule_chembl_id>  (595) 
CHEMBL4646763

>  <canonical_smiles>  (595) 
COc1nc2ccccc2cc1-c1cnc(C(N)CCCCCC(=O)c2ncc(CO)o2)[nH]1

>  <pchembl_value_mean>  (595) 
6.33

>  <document_chembl_id>  (595) 
CHEMBL4622967

$$$$

     RDKit          2D

 32 35  0  0  0  0  0  0  0  0999 V2000
    3.0000    0.0000    0.0000 N   0  0  0  0  0  0  0  0  0  0  0  0
    1.5000    0.0000    0.0000 C   0  0  0  0  0  0  0  0  0  0  0  0
    0.7500   -1.2990    0.0000 C   0  0  0  0  0  0  0  0  0  0  0  0
   -0.7500   -1.2990    0.0000 C   0  0  0  0  0  0  0  0  0  0  0  0
   -1.5000    0.0000    0.0000 C   0  0  0  0  0  0  0  0  0  0  0  0
   -0.7500    1.2990    0.0000 C   0  0  0  0  0  0  0  0  0  0  0  0
    0.7500    1.2990    0.0000 C   0  0  0  0  0  0  0  0  0  0  0  0
    1.5000    2.5981    0.0000 N   0  0  0  0  0  0  0  0  0  0  0  0
    0.7500    3.8971    0.0000 C   0  0  0  0  0  0  0  0  0  0  0  0
   -0.7500    3.8971    0.0000 O   0  0  0  0  0  0  0  0  0  0  0  0
    1.5000    5.1962    0.0000 C   0  0  0  0  0  0  0  0  0  0  0  0
    3.0000    5.1962    0.0000 C   0  0  0  0  0  0  0  0  0  0  0  0
    3.7500    6.4952    0.0000 C   0  0  0  0  0  0  0  0  0  0  0  0
    3.0000    7.7942    0.0000 C   0  0  0  0  0  0  0  0  0  0  0  0
    3.7500    9.0933    0.0000 C   0  0  0  0  0  0  0  0  0  0  0  0
    5.2500    9.0933    0.0000 S   0  0  0  0  0  0  0  0  0  0  0  0
    6.0000   10.3923    0.0000 C   0  0  0  0  0  0  0  0  0  0  0  0
    5.2500   11.6913    0.0000 S   0  0  0  0  0  0  0  0  0  0  0  0
    7.5000   10.3923    0.0000 N   0  0  0  0  0  0  0  0  0  0  0  0
    8.2500    9.0933    0.0000 C   0  0  0  0  0  0  0  0  0  0  0  0
    9.7500    9.0933    0.0000 C   0  0  0  0  0  0  0  0  0  0  0  0
   10.5000   10.3923    0.0000 N   0  0  0  0  0  0  0  0  0  0  0  0
   12.0000   10.3923    0.0000 C   0  0  0  0  0  0  0  0  0  0  0  0
   12.7500    9.0933    0.0000 C   0  0  0  0  0  0  0  0  0  0  0  0
   14.2500    9.0933    0.0000 C   0  0  0  0  0  0  0  0  0  0  0  0
   15.0000   10.3923    0.0000 N   0  0  0  0  0  0  0  0  0  0  0  0
   14.2500   11.6913    0.0000 C   0  0  0  0  0  0  0  0  0  0  0  0
   12.7500   11.6913    0.0000 C   0  0  0  0  0  0  0  0  0  0  0  0
    9.7500   11.6913    0.0000 C   0  0  0  0  0  0  0  0  0  0  0  0
    8.2500   11.6913    0.0000 C   0  0  0  0  0  0  0  0  0  0  0  0
    1.5000    7.7942    0.0000 C   0  0  0  0  0  0  0  0  0  0  0  0
    0.7500    6.4952    0.0000 C   0  0  0  0  0  0  0  0  0  0  0  0
  1  2  1  0
  2  3  2  0
  3  4  1  0
  4  5  2  0
  5  6  1  0
  6  7  2  0
  7  8  1  0
  8  9  1  0
  9 10  2  0
  9 11  1  0
 11 12  2  0
 12 13  1  0
 13 14  2  0
 14 15  1  0
 15 16  1  0
 16 17  1  0
 17 18  2  0
 17 19  1  0
 19 20  1  0
 20 21  1  0
 21 22  1  0
 22 23  1  0
 23 24  2  0
 24 25  1  0
 25 26  2  0
 26 27  1  0
 27 28  2  0
 22 29  1  0
 29 30  1  0
 14 31  1  0
 31 32  2  0
  7  2  1  0
 32 11  1  0
 30 19  1  0
 28 23  1  0
M  END
>  <molecule_chembl_id>  (596) 
CHEMBL4276962

>  <canonical_smiles>  (596) 
Nc1ccccc1NC(=O)c1ccc(CSC(=S)N2CCN(c3ccncc3)CC2)cc1

>  <pchembl_value_mean>  (596) 
6.33

>  <document_chembl_id>  (596) 
CHEMBL4251578

$$$$

     RDKit          2D

 31 32  0  0  0  0  0  0  0  0999 V2000
    7.5000   -0.0000    0.0000 C   0  0  0  0  0  0  0  0  0  0  0  0
    6.0000    0.0000    0.0000 C   0  0  0  0  0  0  0  0  0  0  0  0
    5.2500   -1.2990    0.0000 C   0  0  0  0  0  0  0  0  0  0  0  0
    6.0000   -2.5981    0.0000 C   0  0  0  0  0  0  0  0  0  0  0  0
    3.7500   -1.2990    0.0000 C   0  0  0  0  0  0  0  0  0  0  0  0
    3.0000   -2.5981    0.0000 O   0  0  0  0  0  0  0  0  0  0  0  0
    3.0000    0.0000    0.0000 O   0  0  0  0  0  0  0  0  0  0  0  0
    1.5000    0.0000    0.0000 C   0  0  0  0  0  0  0  0  0  0  0  0
    0.7500   -1.2990    0.0000 C   0  0  0  0  0  0  0  0  0  0  0  0
   -0.7500   -1.2990    0.0000 C   0  0  0  0  0  0  0  0  0  0  0  0
   -1.5000   -2.5981    0.0000 C   0  0  0  0  0  0  0  0  0  0  0  0
   -1.5000    0.0000    0.0000 C   0  0  0  0  0  0  0  0  0  0  0  0
   -0.7500    1.2990    0.0000 C   0  0  0  0  0  0  0  0  0  0  0  0
   -1.5000    2.5981    0.0000 C   0  0  0  0  0  0  0  0  0  0  0  0
   -0.7500    3.8971    0.0000 C   0  0  0  0  0  0  0  0  0  0  0  0
    0.7500    3.8971    0.0000 C   0  0  0  0  0  0  0  0  0  0  0  0
    1.5000    5.1962    0.0000 C   0  0  0  0  0  0  0  0  0  0  0  0
    1.5000    2.5981    0.0000 C   0  0  0  0  0  0  0  0  0  0  0  0
    3.0000    2.5981    0.0000 C   0  0  0  0  0  0  0  0  0  0  0  0
    3.7500    3.8971    0.0000 C   0  0  0  0  0  0  0  0  0  0  0  0
    5.2500    3.8971    0.0000 C   0  0  0  0  0  0  0  0  0  0  0  0
    6.0000    5.1962    0.0000 O   0  0  0  0  0  0  0  0  0  0  0  0
    6.0000    2.5981    0.0000 C   0  0  0  0  0  0  0  0  0  0  0  0
    7.5000    2.5981    0.0000 C   0  0  0  0  0  0  0  0  0  0  0  0
    8.2500    3.8971    0.0000 O   0  0  0  0  0  0  0  0  0  0  0  0
    8.2500    1.2990    0.0000 C   0  0  0  0  0  0  0  0  0  0  0  0
    9.7500    1.2990    0.0000 C   0  0  0  0  0  0  0  0  0  0  0  0
   10.5000    2.5981    0.0000 O   0  0  0  0  0  0  0  0  0  0  0  0
   10.5000    0.0000    0.0000 N   0  0  0  0  0  0  0  0  0  0  0  0
   12.0000    0.0000    0.0000 O   0  0  0  0  0  0  0  0  0  0  0  0
    0.7500    1.2990    0.0000 C   0  0  0  0  0  0  0  0  0  0  0  0
  1  2  1  0
  2  3  1  0
  3  4  1  0
  3  5  1  0
  5  6  2  0
  5  7  1  0
  7  8  1  0
  8  9  1  0
  9 10  1  0
 10 11  1  0
 10 12  1  0
 12 13  2  0
 13 14  1  0
 14 15  2  0
 15 16  1  0
 16 17  1  0
 16 18  1  0
 18 19  1  0
 19 20  1  0
 20 21  1  0
 21 22  1  0
 21 23  1  0
 23 24  1  0
 24 25  1  0
 24 26  1  0
 26 27  1  0
 27 28  2  0
 27 29  1  0
 29 30  1  0
 18 31  1  0
 31  8  1  0
 31 13  1  0
M  END
>  <molecule_chembl_id>  (597) 
CHEMBL2347006

>  <canonical_smiles>  (597) 
CCC(C)C(=O)OC1CC(C)C=C2C=CC(C)C(CCC(O)CC(O)CC(=O)NO)C21

>  <pchembl_value_mean>  (597) 
6.33

>  <document_chembl_id>  (597) 
CHEMBL2346500

$$$$

     RDKit          2D

 41 44  0  0  0  0  0  0  0  0999 V2000
   11.2500   -3.8971    0.0000 C   0  0  0  0  0  0  0  0  0  0  0  0
    9.7500   -3.8971    0.0000 C   0  0  0  0  0  0  0  0  0  0  0  0
    8.2500   -3.8971    0.0000 C   0  0  0  0  0  0  0  0  0  0  0  0
    7.5000   -5.1962    0.0000 C   0  0  0  0  0  0  0  0  0  0  0  0
    6.0000   -5.1962    0.0000 C   0  0  0  0  0  0  0  0  0  0  0  0
    5.2500   -3.8971    0.0000 C   0  0  0  0  0  0  0  0  0  0  0  0
    3.7500   -3.8971    0.0000 N   0  0  0  0  0  0  0  0  0  0  0  0
    3.0000   -2.5981    0.0000 C   0  0  0  0  0  0  0  0  0  0  0  0
    3.7500   -1.2990    0.0000 O   0  0  0  0  0  0  0  0  0  0  0  0
    1.5000   -2.5981    0.0000 O   0  0  0  0  0  0  0  0  0  0  0  0
    0.7500   -1.2990    0.0000 C   0  0  0  0  0  0  0  0  0  0  0  0
    1.5000    0.0000    0.0000 C   0  0  0  0  0  0  0  0  0  0  0  0
    0.7500    1.2990    0.0000 C   0  0  0  0  0  0  0  0  0  0  0  0
    1.5000    2.5981    0.0000 C   0  0  0  0  0  0  0  0  0  0  0  0
   -0.7500    1.2990    0.0000 C   0  0  0  0  0  0  0  0  0  0  0  0
   -1.5000    0.0000    0.0000 C   0  0  0  0  0  0  0  0  0  0  0  0
   -3.0000    0.0000    0.0000 C   0  0  0  0  0  0  0  0  0  0  0  0
   -3.7500   -1.2990    0.0000 C   0  0  0  0  0  0  0  0  0  0  0  0
   -3.0000   -2.5981    0.0000 C   0  0  0  0  0  0  0  0  0  0  0  0
   -3.7500   -3.8971    0.0000 C   0  0  0  0  0  0  0  0  0  0  0  0
   -1.5000   -2.5981    0.0000 C   0  0  0  0  0  0  0  0  0  0  0  0
   -0.7500   -3.8971    0.0000 C   0  0  0  0  0  0  0  0  0  0  0  0
   -1.5000   -5.1962    0.0000 C   0  0  0  0  0  0  0  0  0  0  0  0
   -0.7500   -6.4952    0.0000 C   0  0  0  0  0  0  0  0  0  0  0  0
   -1.5000   -7.7942    0.0000 C   0  0  0  0  0  0  0  0  0  0  0  0
   -0.7500   -9.0933    0.0000 C   0  0  0  0  0  0  0  0  0  0  0  0
   -1.5000  -10.3923    0.0000 O   0  0  0  0  0  0  0  0  0  0  0  0
   -3.0000  -10.3923    0.0000 Si  0  0  0  0  0  4  0  0  0  0  0  0
   -3.0000  -11.8923    0.0000 C   0  0  0  0  0  0  0  0  0  0  0  0
   -3.0000   -8.8923    0.0000 C   0  0  0  0  0  0  0  0  0  0  0  0
   -4.5000  -10.3923    0.0000 C   0  0  0  0  0  0  0  0  0  0  0  0
   -4.5000   -8.8923    0.0000 C   0  0  0  0  0  0  0  0  0  0  0  0
   -4.5000  -11.8923    0.0000 C   0  0  0  0  0  0  0  0  0  0  0  0
   -6.0000  -10.3923    0.0000 C   0  0  0  0  0  0  0  0  0  0  0  0
    0.7500   -9.0933    0.0000 C   0  0  0  0  0  0  0  0  0  0  0  0
    1.5000   -7.7942    0.0000 C   0  0  0  0  0  0  0  0  0  0  0  0
    3.0000   -7.7942    0.0000 O   0  0  0  0  0  0  0  0  0  0  0  0
    0.7500   -6.4952    0.0000 O   0  0  0  0  0  0  0  0  0  0  0  0
   -0.7500   -1.2990    0.0000 C   0  0  0  0  0  0  0  0  0  0  0  0
    6.0000   -2.5981    0.0000 C   0  0  0  0  0  0  0  0  0  0  0  0
    7.5000   -2.5981    0.0000 C   0  0  0  0  0  0  0  0  0  0  0  0
  1  2  3  0
  2  3  1  0
  3  4  2  0
  4  5  1  0
  5  6  2  0
  6  7  1  0
  7  8  1  0
  8  9  2  0
  8 10  1  0
 10 11  1  0
 11 12  1  0
 12 13  1  0
 13 14  1  0
 13 15  1  0
 15 16  2  0
 16 17  1  0
 17 18  2  0
 18 19  1  0
 19 20  1  0
 19 21  1  0
 21 22  1  0
 22 23  1  0
 23 24  1  0
 24 25  1  0
 25 26  1  0
 26 27  1  0
 27 28  1  0
 28 29  1  0
 28 30  1  0
 28 31  1  0
 31 32  1  0
 31 33  1  0
 31 34  1  0
 26 35  1  0
 35 36  1  0
 36 37  2  0
 36 38  1  0
 21 39  1  0
  6 40  1  0
 40 41  2  0
 41  3  1  0
 39 11  1  0
 39 16  1  0
 38 24  1  0
M  END
>  <molecule_chembl_id>  (598) 
CHEMBL3704922

>  <canonical_smiles>  (598) 
C#Cc1ccc(NC(=O)OC2CC(C)C=C3C=CC(C)C(CCC4CC(O[Si](C)(C)C(C)(C)C)CC(=O)O4)C32)cc1

>  <pchembl_value_mean>  (598) 
6.33

>  <document_chembl_id>  (598) 
CHEMBL3639013

$$$$

     RDKit          2D

 54 58  0  0  0  0  0  0  0  0999 V2000
    3.0000    0.0000    0.0000 C   0  0  0  0  0  0  0  0  0  0  0  0
    1.5000    0.0000    0.0000 C   0  0  0  0  0  0  0  0  0  0  0  0
    0.7500   -1.2990    0.0000 C   0  0  0  0  0  0  0  0  0  0  0  0
   -0.7500   -1.2990    0.0000 C   0  0  0  0  0  0  0  0  0  0  0  0
   -1.5000   -2.5981    0.0000 C   0  0  0  0  0  0  0  0  0  0  0  0
   -3.0000   -2.5981    0.0000 C   0  0  0  0  0  0  0  0  0  0  0  0
   -3.7500   -1.2990    0.0000 C   0  0  0  0  0  0  0  0  0  0  0  0
   -5.2500   -1.2990    0.0000 C   0  0  0  0  0  0  0  0  0  0  0  0
   -3.0000    0.0000    0.0000 C   0  0  0  0  0  0  0  0  0  0  0  0
   -3.7500    1.2990    0.0000 C   0  0  0  0  0  0  0  0  0  0  0  0
   -3.0000    2.5981    0.0000 C   0  0  0  0  0  0  0  0  0  0  0  0
   -3.7500    3.8971    0.0000 C   0  0  0  0  0  0  0  0  0  0  0  0
   -3.0000    5.1962    0.0000 C   0  0  0  0  0  0  0  0  0  0  0  0
   -3.7500    6.4952    0.0000 C   0  0  0  0  0  0  0  0  0  0  0  0
   -3.0000    7.7942    0.0000 O   0  0  0  0  0  0  0  0  0  0  0  0
   -3.7500    9.0933    0.0000 Si  0  0  0  0  0  4  0  0  0  0  0  0
   -2.4510    9.8433    0.0000 C   0  0  0  0  0  0  0  0  0  0  0  0
   -5.0490    8.3433    0.0000 C   0  0  0  0  0  0  0  0  0  0  0  0
   -4.5000   10.3923    0.0000 C   0  0  0  0  0  0  0  0  0  0  0  0
   -5.7990    9.6423    0.0000 C   0  0  0  0  0  0  0  0  0  0  0  0
   -3.2010   11.1423    0.0000 C   0  0  0  0  0  0  0  0  0  0  0  0
   -5.2500   11.6913    0.0000 C   0  0  0  0  0  0  0  0  0  0  0  0
   -5.2500    6.4952    0.0000 C   0  0  0  0  0  0  0  0  0  0  0  0
   -6.0000    5.1962    0.0000 C   0  0  0  0  0  0  0  0  0  0  0  0
   -7.5000    5.1962    0.0000 O   0  0  0  0  0  0  0  0  0  0  0  0
   -5.2500    3.8971    0.0000 O   0  0  0  0  0  0  0  0  0  0  0  0
   -1.5000    0.0000    0.0000 C   0  0  0  0  0  0  0  0  0  0  0  0
   -0.7500    1.2990    0.0000 C   0  0  0  0  0  0  0  0  0  0  0  0
   -1.5000    2.5981    0.0000 O   0  0  0  0  0  0  0  0  0  0  0  0
   -0.7500    3.8971    0.0000 C   0  0  0  0  0  0  0  0  0  0  0  0
    0.7500    3.8971    0.0000 O   0  0  0  0  0  0  0  0  0  0  0  0
   -1.5000    5.1962    0.0000 N   0  0  0  0  0  0  0  0  0  0  0  0
   -0.7500    6.4952    0.0000 C   0  0  0  0  0  0  0  0  0  0  0  0
    0.7500    6.4952    0.0000 C   0  0  0  0  0  0  0  0  0  0  0  0
    1.5000    7.7942    0.0000 C   0  0  0  0  0  0  0  0  0  0  0  0
    0.7500    9.0933    0.0000 C   0  0  0  0  0  0  0  0  0  0  0  0
    1.5000   10.3923    0.0000 C   0  0  0  0  0  0  0  0  0  0  0  0
    0.8899   11.7626    0.0000 C   0  0  0  0  0  0  0  0  0  0  0  0
    2.0046   12.7663    0.0000 N   0  0  0  0  0  0  0  0  0  0  0  0
    1.8478   14.2581    0.0000 C   0  0  0  0  0  0  0  0  0  0  0  0
    3.0613   15.1398    0.0000 C   0  0  0  0  0  0  0  0  0  0  0  0
    2.9046   16.6316    0.0000 C   0  0  0  0  0  0  0  0  0  0  0  0
    4.1181   17.5132    0.0000 C   0  0  0  0  0  0  0  0  0  0  0  0
    3.9613   19.0050    0.0000 C   0  0  0  0  0  0  0  0  0  0  0  0
    5.1748   19.8867    0.0000 C   0  0  0  0  0  0  0  0  0  0  0  0
    5.0180   21.3785    0.0000 C   0  0  0  0  0  0  0  0  0  0  0  0
    3.6477   21.9886    0.0000 O   0  0  0  0  0  0  0  0  0  0  0  0
    6.2315   22.2602    0.0000 N   0  0  0  0  0  0  0  0  0  0  0  0
    6.0748   23.7519    0.0000 O   0  0  0  0  0  0  0  0  0  0  0  0
    3.3037   12.0163    0.0000 N   0  0  0  0  0  0  0  0  0  0  0  0
    2.9918   10.5491    0.0000 N   0  0  0  0  0  0  0  0  0  0  0  0
   -0.7500    9.0933    0.0000 C   0  0  0  0  0  0  0  0  0  0  0  0
   -1.5000    7.7942    0.0000 C   0  0  0  0  0  0  0  0  0  0  0  0
    0.7500    1.2990    0.0000 C   0  0  0  0  0  0  0  0  0  0  0  0
  1  2  1  0
  2  3  1  0
  3  4  2  0
  4  5  1  0
  5  6  2  0
  6  7  1  0
  7  8  1  0
  7  9  1  0
  9 10  1  0
 10 11  1  0
 11 12  1  0
 12 13  1  0
 13 14  1  0
 14 15  1  0
 15 16  1  0
 16 17  1  0
 16 18  1  0
 16 19  1  0
 19 20  1  0
 19 21  1  0
 19 22  1  0
 14 23  1  0
 23 24  1  0
 24 25  2  0
 24 26  1  0
  9 27  1  0
 27 28  1  0
 28 29  1  0
 29 30  1  0
 30 31  2  0
 30 32  1  0
 32 33  1  0
 33 34  2  0
 34 35  1  0
 35 36  2  0
 36 37  1  0
 37 38  2  0
 38 39  1  0
 39 40  1  0
 40 41  1  0
 41 42  1  0
 42 43  1  0
 43 44  1  0
 44 45  1  0
 45 46  1  0
 46 47  2  0
 46 48  1  0
 48 49  1  0
 39 50  1  0
 50 51  2  0
 36 52  1  0
 52 53  2  0
 28 54  1  0
 54  2  1  0
 27  4  1  0
 53 33  1  0
 26 12  1  0
 51 37  1  0
M  END
>  <molecule_chembl_id>  (599) 
CHEMBL2347010

>  <canonical_smiles>  (599) 
CC1C=C2C=CC(C)C(CCC3CC(O[Si](C)(C)C(C)(C)C)CC(=O)O3)C2C(OC(=O)Nc2ccc(-c3cn(CCCCCCC(=O)NO)nn3)cc2)C1

>  <pchembl_value_mean>  (599) 
6.33

>  <document_chembl_id>  (599) 
CHEMBL2346500

$$$$

     RDKit          2D

 42 44  0  0  0  0  0  0  0  0999 V2000
   -4.6532  -24.0310    0.0000 C   0  0  0  0  0  0  0  0  0  0  0  0
   -5.0414  -22.5822    0.0000 C   0  0  0  0  0  0  0  0  0  0  0  0
   -3.9807  -21.5215    0.0000 C   0  0  0  0  0  0  0  0  0  0  0  0
   -4.3690  -20.0726    0.0000 C   0  0  0  0  0  0  0  0  0  0  0  0
   -3.3083  -19.0119    0.0000 C   0  0  0  0  0  0  0  0  0  0  0  0
   -3.6965  -17.5631    0.0000 C   0  0  0  0  0  0  0  0  0  0  0  0
   -2.6359  -16.5024    0.0000 C   0  0  0  0  0  0  0  0  0  0  0  0
   -3.0241  -15.0535    0.0000 C   0  0  0  0  0  0  0  0  0  0  0  0
   -4.4730  -14.6653    0.0000 O   0  0  0  0  0  0  0  0  0  0  0  0
   -1.9634  -13.9928    0.0000 S   0  0  0  0  0  0  0  0  0  0  0  0
   -2.3517  -12.5440    0.0000 C   0  0  0  0  0  0  0  0  0  0  0  0
   -1.2910  -11.4833    0.0000 C   0  0  0  0  0  0  0  0  0  0  0  0
   -1.6792  -10.0344    0.0000 C   0  0  0  0  0  0  0  0  0  0  0  0
   -0.6186   -8.9738    0.0000 C   0  0  0  0  0  0  0  0  0  0  0  0
   -1.0068   -7.5249    0.0000 C   0  0  0  0  0  0  0  0  0  0  0  0
    0.3385   -6.8614    0.0000 C   0  0  0  0  0  0  0  0  0  0  0  0
    1.3275   -5.7337    0.0000 C   0  0  0  0  0  0  0  0  0  0  0  0
    2.6266   -6.4837    0.0000 O   0  0  0  0  0  0  0  0  0  0  0  0
    1.8097   -4.3133    0.0000 N   0  0  0  0  0  0  0  0  0  0  0  0
    1.7116   -2.8165    0.0000 C   0  0  0  0  0  0  0  0  0  0  0  0
    0.7500   -1.2990    0.0000 C   0  0  0  0  0  0  0  0  0  0  0  0
    1.5000    0.0000    0.0000 C   0  0  0  0  0  0  0  0  0  0  0  0
    0.7500    1.2990    0.0000 C   0  0  0  0  0  0  0  0  0  0  0  0
   -0.7500    1.2990    0.0000 C   0  0  0  0  0  0  0  0  0  0  0  0
   -1.5000    0.0000    0.0000 C   0  0  0  0  0  0  0  0  0  0  0  0
   -0.7500   -1.2990    0.0000 N   0  0  0  0  0  0  0  0  0  0  0  0
   -2.9968   -0.0981    0.0000 C   0  0  0  0  0  0  0  0  0  0  0  0
   -4.3421   -0.7615    0.0000 N   0  0  0  0  0  0  0  0  0  0  0  0
   -5.3311   -1.8893    0.0000 C   0  0  0  0  0  0  0  0  0  0  0  0
   -6.6302   -1.1393    0.0000 C   0  0  0  0  0  0  0  0  0  0  0  0
   -5.8318   -0.4753    0.0000 C   0  0  0  0  0  0  0  0  0  0  0  0
   -4.6418    0.4378    0.0000 S   0  0  0  0  0  0  0  0  0  0  0  0
   -5.8133   -3.3097    0.0000 C   0  0  0  0  0  0  0  0  0  0  0  0
   -7.3004   -3.1139    0.0000 O   0  0  0  0  0  0  0  0  0  0  0  0
   -5.7152   -4.8065    0.0000 N   0  0  0  0  0  0  0  0  0  0  0  0
   -5.0517   -6.1518    0.0000 C   0  0  0  0  0  0  0  0  0  0  0  0
   -6.2418   -7.0649    0.0000 C   0  0  0  0  0  0  0  0  0  0  0  0
   -7.6276   -6.4909    0.0000 C   0  0  0  0  0  0  0  0  0  0  0  0
   -6.0460   -8.5521    0.0000 C   0  0  0  0  0  0  0  0  0  0  0  0
   -3.9240   -7.1408    0.0000 C   0  0  0  0  0  0  0  0  0  0  0  0
   -4.6740   -8.4398    0.0000 O   0  0  0  0  0  0  0  0  0  0  0  0
   -2.5036   -7.6230    0.0000 N   0  0  0  0  0  0  0  0  0  0  0  0
  1  2  1  0
  2  3  1  0
  3  4  1  0
  4  5  1  0
  5  6  1  0
  6  7  1  0
  7  8  1  0
  8  9  2  0
  8 10  1  0
 10 11  1  0
 11 12  1  0
 12 13  1  0
 13 14  2  3
 14 15  1  0
 15 16  1  0
 16 17  1  0
 17 18  2  0
 17 19  1  0
 19 20  1  0
 20 21  1  0
 21 22  1  0
 22 23  2  0
 23 24  1  0
 24 25  2  0
 25 26  1  0
 25 27  1  0
 27 28  2  0
 28 29  1  0
 29 30  1  0
 29 31  1  0
 31 32  1  0
 29 33  1  0
 33 34  2  0
 33 35  1  0
 35 36  1  0
 36 37  1  0
 37 38  1  0
 37 39  1  0
 36 40  1  0
 40 41  2  0
 40 42  1  0
 42 15  1  0
 26 21  2  0
 32 27  1  0
M  END
>  <molecule_chembl_id>  (600) 
CHEMBL3593412

>  <canonical_smiles>  (600) 
CCCCCCCC(=O)SCCC=CC1CC(=O)NCc2cccc(n2)C2=NC(C)(CS2)C(=O)NC(C(C)C)C(=O)N1

>  <pchembl_value_mean>  (600) 
6.33

>  <document_chembl_id>  (600) 
CHEMBL3593208

$$$$

     RDKit          2D

 30 34  0  0  0  0  0  0  0  0999 V2000
    3.7500   -3.8971    0.0000 N   0  0  0  0  0  0  0  0  0  0  0  0
    3.0000   -5.1962    0.0000 C   0  0  0  0  0  0  0  0  0  0  0  0
    3.7500   -6.4952    0.0000 C   0  0  0  0  0  0  0  0  0  0  0  0
    3.0000   -7.7942    0.0000 C   0  0  0  0  0  0  0  0  0  0  0  0
    1.5000   -7.7942    0.0000 C   0  0  0  0  0  0  0  0  0  0  0  0
    0.7500   -9.0933    0.0000 F   0  0  0  0  0  0  0  0  0  0  0  0
    0.7500   -6.4952    0.0000 C   0  0  0  0  0  0  0  0  0  0  0  0
    1.5000   -5.1962    0.0000 C   0  0  0  0  0  0  0  0  0  0  0  0
    0.7500   -3.8971    0.0000 N   0  0  0  0  0  0  0  0  0  0  0  0
    1.5000   -2.5981    0.0000 C   0  0  0  0  0  0  0  0  0  0  0  0
    3.0000   -2.5981    0.0000 O   0  0  0  0  0  0  0  0  0  0  0  0
    0.7500   -1.2990    0.0000 C   0  0  0  0  0  0  0  0  0  0  0  0
    1.5000    0.0000    0.0000 C   0  0  0  0  0  0  0  0  0  0  0  0
    0.7500    1.2990    0.0000 N   0  0  0  0  0  0  0  0  0  0  0  0
   -0.7500    1.2990    0.0000 C   0  0  0  0  0  0  0  0  0  0  0  0
   -1.5000    2.5981    0.0000 C   0  0  0  0  0  0  0  0  0  0  0  0
   -0.7500    3.8971    0.0000 C   0  0  0  0  0  0  0  0  0  0  0  0
   -0.7500    5.3971    0.0000 C   0  0  0  0  0  0  0  0  0  0  0  0
    0.5490    4.6471    0.0000 C   0  0  0  0  0  0  0  0  0  0  0  0
   -3.0000    2.5981    0.0000 C   0  0  0  0  0  0  0  0  0  0  0  0
   -3.7500    3.8971    0.0000 N   0  0  0  0  0  0  0  0  0  0  0  0
   -3.0000    5.1962    0.0000 C   0  0  0  0  0  0  0  0  0  0  0  0
   -3.7500    6.4952    0.0000 C   0  0  0  0  0  0  0  0  0  0  0  0
   -5.2500    6.4952    0.0000 N   0  0  0  0  0  0  0  0  0  0  0  0
   -6.0000    5.1962    0.0000 C   0  0  0  0  0  0  0  0  0  0  0  0
   -5.2500    3.8971    0.0000 C   0  0  0  0  0  0  0  0  0  0  0  0
   -3.7500    1.2990    0.0000 C   0  0  0  0  0  0  0  0  0  0  0  0
   -3.0000    0.0000    0.0000 C   0  0  0  0  0  0  0  0  0  0  0  0
   -1.5000    0.0000    0.0000 C   0  0  0  0  0  0  0  0  0  0  0  0
   -0.7500   -1.2990    0.0000 C   0  0  0  0  0  0  0  0  0  0  0  0
  1  2  1  0
  2  3  2  0
  3  4  1  0
  4  5  2  0
  5  6  1  0
  5  7  1  0
  7  8  2  0
  8  9  1  0
  9 10  1  0
 10 11  2  0
 10 12  1  0
 12 13  2  0
 13 14  1  0
 14 15  2  0
 15 16  1  0
 16 17  1  0
 17 18  1  0
 18 19  1  0
 16 20  2  0
 20 21  1  0
 21 22  1  0
 22 23  1  0
 23 24  1  0
 24 25  1  0
 25 26  1  0
 20 27  1  0
 27 28  2  0
 28 29  1  0
 29 30  2  0
  8  2  1  0
 30 12  1  0
 29 15  1  0
 19 17  1  0
 26 21  1  0
M  END
>  <molecule_chembl_id>  (601) 
CHEMBL3664022

>  <canonical_smiles>  (601) 
Nc1ccc(F)cc1NC(=O)c1cnc2c(C3CC3)c(N3CCNCC3)ccc2c1

>  <pchembl_value_mean>  (601) 
6.34

>  <document_chembl_id>  (601) 
CHEMBL3639382

$$$$

     RDKit          2D

 25 26  0  0  0  0  0  0  0  0999 V2000
    3.0000    0.0000    0.0000 O   0  0  0  0  0  0  0  0  0  0  0  0
    1.5000    0.0000    0.0000 C   0  0  0  0  0  0  0  0  0  0  0  0
    0.7500   -1.2990    0.0000 C   0  0  0  0  0  0  0  0  0  0  0  0
   -0.7500   -1.2990    0.0000 C   0  0  0  0  0  0  0  0  0  0  0  0
   -1.5000    0.0000    0.0000 C   0  0  0  0  0  0  0  0  0  0  0  0
   -0.7500    1.2990    0.0000 C   0  0  0  0  0  0  0  0  0  0  0  0
   -1.5000    2.5981    0.0000 C   0  0  0  0  0  0  0  0  0  0  0  0
   -3.0000    2.5981    0.0000 O   0  0  0  0  0  0  0  0  0  0  0  0
   -0.7500    3.8971    0.0000 N   0  0  0  0  0  0  0  0  0  0  0  0
   -1.5000    5.1962    0.0000 C   0  0  0  0  0  0  0  0  0  0  0  0
   -0.7500    6.4952    0.0000 C   0  0  0  0  0  0  0  0  0  0  0  0
   -1.5000    7.7942    0.0000 C   0  0  0  0  0  0  0  0  0  0  0  0
   -0.7500    9.0933    0.0000 C   0  0  0  0  0  0  0  0  0  0  0  0
   -1.5000   10.3923    0.0000 C   0  0  0  0  0  0  0  0  0  0  0  0
   -0.7500   11.6913    0.0000 C   0  0  0  0  0  0  0  0  0  0  0  0
   -1.5000   12.9904    0.0000 S   0  0  0  0  0  0  0  0  0  0  0  0
   -3.0000    5.1962    0.0000 C   0  0  0  0  0  0  0  0  0  0  0  0
   -3.7500    3.8971    0.0000 O   0  0  0  0  0  0  0  0  0  0  0  0
   -3.7500    6.4952    0.0000 N   0  0  0  0  0  0  0  0  0  0  0  0
   -5.2500    6.4952    0.0000 C   0  0  0  0  0  0  0  0  0  0  0  0
   -6.1317    5.2817    0.0000 C   0  0  0  0  0  0  0  0  0  0  0  0
   -7.5583    5.7452    0.0000 C   0  0  0  0  0  0  0  0  0  0  0  0
   -7.5583    7.2452    0.0000 C   0  0  0  0  0  0  0  0  0  0  0  0
   -6.1317    7.7087    0.0000 C   0  0  0  0  0  0  0  0  0  0  0  0
    0.7500    1.2990    0.0000 N   0  0  0  0  0  0  0  0  0  0  0  0
  1  2  2  0
  2  3  1  0
  3  4  1  0
  4  5  1  0
  5  6  1  0
  6  7  1  0
  7  8  2  0
  7  9  1  0
  9 10  1  0
 10 11  1  0
 11 12  1  0
 12 13  1  0
 13 14  1  0
 14 15  1  0
 15 16  1  0
 10 17  1  0
 17 18  2  0
 17 19  1  0
 19 20  1  0
 20 21  1  0
 21 22  1  0
 22 23  1  0
 23 24  1  0
  6 25  1  0
 25  2  1  0
 24 20  1  0
M  END
>  <molecule_chembl_id>  (602) 
CHEMBL3356931

>  <canonical_smiles>  (602) 
O=C1CCCC(C(=O)NC(CCCCCS)C(=O)NC2CCCC2)N1

>  <pchembl_value_mean>  (602) 
6.34

>  <document_chembl_id>  (602) 
CHEMBL3352570

$$$$

     RDKit          2D

 12 12  0  0  0  0  0  0  0  0999 V2000
    6.0000    0.0000    0.0000 O   0  0  0  0  0  0  0  0  0  0  0  0
    5.2500   -1.2990    0.0000 C   0  0  0  0  0  0  0  0  0  0  0  0
    3.7500   -1.2990    0.0000 C   0  0  0  0  0  0  0  0  0  0  0  0
    3.0000    0.0000    0.0000 C   0  0  0  0  0  0  0  0  0  0  0  0
    1.5000    0.0000    0.0000 C   0  0  0  0  0  0  0  0  0  0  0  0
    0.7500   -1.2990    0.0000 C   0  0  0  0  0  0  0  0  0  0  0  0
   -0.7500   -1.2990    0.0000 C   0  0  0  0  0  0  0  0  0  0  0  0
   -1.5000    0.0000    0.0000 C   0  0  0  0  0  0  0  0  0  0  0  0
   -0.7500    1.2990    0.0000 C   0  0  0  0  0  0  0  0  0  0  0  0
    0.7500    1.2990    0.0000 C   0  0  0  0  0  0  0  0  0  0  0  0
    6.0000   -2.5981    0.0000 N   0  0  0  0  0  0  0  0  0  0  0  0
    7.5000   -2.5981    0.0000 O   0  0  0  0  0  0  0  0  0  0  0  0
  1  2  2  0
  2  3  1  0
  3  4  2  3
  4  5  1  0
  5  6  2  0
  6  7  1  0
  7  8  2  0
  8  9  1  0
  9 10  2  0
  2 11  1  0
 11 12  1  0
 10  5  1  0
M  END
>  <molecule_chembl_id>  (603) 
CHEMBL154574

>  <canonical_smiles>  (603) 
O=C(C=Cc1ccccc1)NO

>  <pchembl_value_mean>  (603) 
6.34

>  <document_chembl_id>  (603) 
CHEMBL2331470

$$$$

     RDKit          2D

 35 38  0  0  0  0  0  0  0  0999 V2000
  -13.2499   -9.3683    0.0000 O   0  0  0  0  0  0  0  0  0  0  0  0
  -12.9381   -7.9010    0.0000 C   0  0  0  0  0  0  0  0  0  0  0  0
  -11.5115   -7.4375    0.0000 C   0  0  0  0  0  0  0  0  0  0  0  0
  -10.3968   -8.4412    0.0000 C   0  0  0  0  0  0  0  0  0  0  0  0
   -8.9702   -7.9777    0.0000 C   0  0  0  0  0  0  0  0  0  0  0  0
   -8.6583   -6.5105    0.0000 C   0  0  0  0  0  0  0  0  0  0  0  0
   -7.2317   -6.0469    0.0000 C   0  0  0  0  0  0  0  0  0  0  0  0
   -6.1170   -7.0506    0.0000 C   0  0  0  0  0  0  0  0  0  0  0  0
   -4.6904   -6.5871    0.0000 O   0  0  0  0  0  0  0  0  0  0  0  0
   -4.3786   -5.1199    0.0000 C   0  0  0  0  0  0  0  0  0  0  0  0
   -2.9520   -4.6564    0.0000 C   0  0  0  0  0  0  0  0  0  0  0  0
   -2.6401   -3.1891    0.0000 C   0  0  0  0  0  0  0  0  0  0  0  0
   -1.2135   -2.7256    0.0000 C   0  0  0  0  0  0  0  0  0  0  0  0
   -0.0000   -3.6073    0.0000 C   0  0  0  0  0  0  0  0  0  0  0  0
    1.2135   -2.7256    0.0000 N   0  0  0  0  0  0  0  0  0  0  0  0
    0.7500   -1.2990    0.0000 C   0  0  0  0  0  0  0  0  0  0  0  0
    1.5000    0.0000    0.0000 C   0  0  0  0  0  0  0  0  0  0  0  0
    0.7500    1.2990    0.0000 C   0  0  0  0  0  0  0  0  0  0  0  0
   -0.7500    1.2990    0.0000 C   0  0  0  0  0  0  0  0  0  0  0  0
   -1.5000    0.0000    0.0000 C   0  0  0  0  0  0  0  0  0  0  0  0
   -0.7500   -1.2990    0.0000 C   0  0  0  0  0  0  0  0  0  0  0  0
   -1.8373   -5.6601    0.0000 N   0  0  0  0  0  0  0  0  0  0  0  0
   -2.1491   -7.1273    0.0000 C   0  0  0  0  0  0  0  0  0  0  0  0
   -3.5757   -7.5908    0.0000 O   0  0  0  0  0  0  0  0  0  0  0  0
   -1.0344   -8.1310    0.0000 C   0  0  0  0  0  0  0  0  0  0  0  0
   -1.3463   -9.5982    0.0000 C   0  0  0  0  0  0  0  0  0  0  0  0
   -0.2316  -10.6019    0.0000 C   0  0  0  0  0  0  0  0  0  0  0  0
    1.1950  -10.1384    0.0000 C   0  0  0  0  0  0  0  0  0  0  0  0
    2.3097  -11.1421    0.0000 F   0  0  0  0  0  0  0  0  0  0  0  0
    1.5069   -8.6712    0.0000 C   0  0  0  0  0  0  0  0  0  0  0  0
    0.3922   -7.6675    0.0000 C   0  0  0  0  0  0  0  0  0  0  0  0
   -6.4289   -8.5179    0.0000 C   0  0  0  0  0  0  0  0  0  0  0  0
   -7.8555   -8.9814    0.0000 C   0  0  0  0  0  0  0  0  0  0  0  0
  -14.0528   -6.8974    0.0000 N   0  0  0  0  0  0  0  0  0  0  0  0
  -15.4794   -7.3609    0.0000 O   0  0  0  0  0  0  0  0  0  0  0  0
  1  2  2  0
  2  3  1  0
  3  4  2  3
  4  5  1  0
  5  6  2  0
  6  7  1  0
  7  8  2  0
  8  9  1  0
  9 10  1  0
 10 11  1  0
 11 12  1  0
 12 13  1  0
 13 14  2  0
 14 15  1  0
 15 16  1  0
 16 17  2  0
 17 18  1  0
 18 19  2  0
 19 20  1  0
 20 21  2  0
 11 22  1  0
 22 23  1  0
 23 24  2  0
 23 25  1  0
 25 26  2  0
 26 27  1  0
 27 28  2  0
 28 29  1  0
 28 30  1  0
 30 31  2  0
  8 32  1  0
 32 33  2  0
  2 34  1  0
 34 35  1  0
 33  5  1  0
 21 13  1  0
 31 25  1  0
 21 16  1  0
M  END
>  <molecule_chembl_id>  (604) 
CHEMBL3233703

>  <canonical_smiles>  (604) 
O=C(C=Cc1ccc(OCC(Cc2c[nH]c3ccccc23)NC(=O)c2ccc(F)cc2)cc1)NO

>  <pchembl_value_mean>  (604) 
6.34

>  <document_chembl_id>  (604) 
CHEMBL3232921

$$$$

     RDKit          2D

 20 21  0  0  0  0  0  0  0  0999 V2000
    6.0000    0.0000    0.0000 O   0  0  0  0  0  0  0  0  0  0  0  0
    5.2500   -1.2990    0.0000 C   0  0  0  0  0  0  0  0  0  0  0  0
    3.7500   -1.2990    0.0000 C   0  0  0  0  0  0  0  0  0  0  0  0
    3.0000    0.0000    0.0000 C   0  0  0  0  0  0  0  0  0  0  0  0
    1.5000    0.0000    0.0000 C   0  0  0  0  0  0  0  0  0  0  0  0
    0.7500   -1.2990    0.0000 C   0  0  0  0  0  0  0  0  0  0  0  0
   -0.7500   -1.2990    0.0000 C   0  0  0  0  0  0  0  0  0  0  0  0
   -1.5000    0.0000    0.0000 C   0  0  0  0  0  0  0  0  0  0  0  0
   -3.0000    0.0000    0.0000 C   0  0  0  0  0  0  0  0  0  0  0  0
   -3.7500    1.2990    0.0000 C   0  0  0  0  0  0  0  0  0  0  0  0
   -5.2500    1.2990    0.0000 C   0  0  0  0  0  0  0  0  0  0  0  0
   -6.0000    0.0000    0.0000 C   0  0  0  0  0  0  0  0  0  0  0  0
   -7.5000    0.0000    0.0000 O   0  0  0  0  0  0  0  0  0  0  0  0
   -5.2500   -1.2990    0.0000 C   0  0  0  0  0  0  0  0  0  0  0  0
   -6.0000   -2.5981    0.0000 Cl  0  0  0  0  0  0  0  0  0  0  0  0
   -3.7500   -1.2990    0.0000 C   0  0  0  0  0  0  0  0  0  0  0  0
   -0.7500    1.2990    0.0000 C   0  0  0  0  0  0  0  0  0  0  0  0
    0.7500    1.2990    0.0000 C   0  0  0  0  0  0  0  0  0  0  0  0
    6.0000   -2.5981    0.0000 N   0  0  0  0  0  0  0  0  0  0  0  0
    7.5000   -2.5981    0.0000 O   0  0  0  0  0  0  0  0  0  0  0  0
  1  2  2  0
  2  3  1  0
  3  4  2  3
  4  5  1  0
  5  6  2  0
  6  7  1  0
  7  8  2  0
  8  9  1  0
  9 10  2  0
 10 11  1  0
 11 12  2  0
 12 13  1  0
 12 14  1  0
 14 15  1  0
 14 16  2  0
  8 17  1  0
 17 18  2  0
  2 19  1  0
 19 20  1  0
 18  5  1  0
 16  9  1  0
M  END
>  <molecule_chembl_id>  (605) 
CHEMBL565140

>  <canonical_smiles>  (605) 
O=C(C=Cc1ccc(-c2ccc(O)c(Cl)c2)cc1)NO

>  <pchembl_value_mean>  (605) 
6.34

>  <document_chembl_id>  (605) 
CHEMBL1158371

$$$$

     RDKit          2D

 19 20  0  0  0  0  0  0  0  0999 V2000
    3.7500    1.2990    0.0000 O   0  0  0  0  0  0  0  0  0  0  0  0
    3.0000    0.0000    0.0000 C   0  0  0  0  0  0  0  0  0  0  0  0
    3.7500   -1.2990    0.0000 N   0  0  0  0  0  0  0  0  0  0  0  0
    5.2500   -1.2990    0.0000 O   0  0  0  0  0  0  0  0  0  0  0  0
    1.5000    0.0000    0.0000 C   0  0  0  0  0  0  0  0  0  0  0  0
    0.7500   -1.2990    0.0000 C   0  0  0  0  0  0  0  0  0  0  0  0
   -0.7500   -1.2990    0.0000 N   0  0  0  0  0  0  0  0  0  0  0  0
   -1.5000    0.0000    0.0000 C   0  0  0  0  0  0  0  0  0  0  0  0
   -3.0000    0.0000    0.0000 N   0  0  0  0  0  0  0  0  0  0  0  0
   -3.7500    1.2990    0.0000 C   0  0  0  0  0  0  0  0  0  0  0  0
   -3.0000    2.5981    0.0000 C   0  0  0  0  0  0  0  0  0  0  0  0
   -3.7500    3.8971    0.0000 C   0  0  0  0  0  0  0  0  0  0  0  0
   -3.0000    5.1962    0.0000 Cl  0  0  0  0  0  0  0  0  0  0  0  0
   -5.2500    3.8971    0.0000 C   0  0  0  0  0  0  0  0  0  0  0  0
   -6.0000    2.5981    0.0000 C   0  0  0  0  0  0  0  0  0  0  0  0
   -5.2500    1.2990    0.0000 C   0  0  0  0  0  0  0  0  0  0  0  0
   -6.0000    0.0000    0.0000 Cl  0  0  0  0  0  0  0  0  0  0  0  0
   -0.7500    1.2990    0.0000 N   0  0  0  0  0  0  0  0  0  0  0  0
    0.7500    1.2990    0.0000 C   0  0  0  0  0  0  0  0  0  0  0  0
  1  2  2  0
  2  3  1  0
  3  4  1  0
  2  5  1  0
  5  6  2  0
  6  7  1  0
  7  8  2  0
  8  9  1  0
  9 10  1  0
 10 11  2  0
 11 12  1  0
 12 13  1  0
 12 14  2  0
 14 15  1  0
 15 16  2  0
 16 17  1  0
  8 18  1  0
 18 19  2  0
 19  5  1  0
 16 10  1  0
M  END
>  <molecule_chembl_id>  (606) 
CHEMBL3652234

>  <canonical_smiles>  (606) 
O=C(NO)c1cnc(Nc2cc(Cl)ccc2Cl)nc1

>  <pchembl_value_mean>  (606) 
6.34

>  <document_chembl_id>  (606) 
CHEMBL3639071

$$$$

     RDKit          2D

 33 35  0  0  0  0  0  0  0  0999 V2000
    6.2976   -8.8783    0.0000 C   0  0  0  0  0  0  0  0  0  0  0  0
    6.1855   -7.3825    0.0000 O   0  0  0  0  0  0  0  0  0  0  0  0
    4.8340   -6.7316    0.0000 C   0  0  0  0  0  0  0  0  0  0  0  0
    3.5947   -7.5766    0.0000 C   0  0  0  0  0  0  0  0  0  0  0  0
    2.1015   -7.2201    0.0000 C   0  0  0  0  0  0  0  0  0  0  0  0
    3.0367   -6.0474    0.0000 C   0  0  0  0  0  0  0  0  0  0  0  0
    3.3705   -4.5850    0.0000 C   0  0  0  0  0  0  0  0  0  0  0  0
    4.7219   -5.2358    0.0000 C   0  0  0  0  0  0  0  0  0  0  0  0
    3.0367   -3.1226    0.0000 C   0  0  0  0  0  0  0  0  0  0  0  0
    2.1015   -1.9499    0.0000 O   0  0  0  0  0  0  0  0  0  0  0  0
    0.7500   -1.2990    0.0000 C   0  0  0  0  0  0  0  0  0  0  0  0
    1.5000    0.0000    0.0000 C   0  0  0  0  0  0  0  0  0  0  0  0
    0.7500    1.2990    0.0000 C   0  0  0  0  0  0  0  0  0  0  0  0
   -0.7500    1.2990    0.0000 C   0  0  0  0  0  0  0  0  0  0  0  0
   -1.5000    0.0000    0.0000 C   0  0  0  0  0  0  0  0  0  0  0  0
   -0.7500   -1.2990    0.0000 C   0  0  0  0  0  0  0  0  0  0  0  0
   -2.1015   -1.9499    0.0000 N   0  0  0  0  0  0  0  0  0  0  0  0
   -3.0367   -3.1226    0.0000 C   0  0  0  0  0  0  0  0  0  0  0  0
   -4.3881   -2.4718    0.0000 O   0  0  0  0  0  0  0  0  0  0  0  0
   -3.3705   -4.5850    0.0000 C   0  0  0  0  0  0  0  0  0  0  0  0
   -4.8705   -4.5850    0.0000 C   0  0  0  0  0  0  0  0  0  0  0  0
   -5.6205   -3.2860    0.0000 C   0  0  0  0  0  0  0  0  0  0  0  0
   -7.1205   -3.2860    0.0000 C   0  0  0  0  0  0  0  0  0  0  0  0
   -7.8705   -1.9869    0.0000 C   0  0  0  0  0  0  0  0  0  0  0  0
   -9.3705   -1.9869    0.0000 C   0  0  0  0  0  0  0  0  0  0  0  0
  -10.1205   -0.6879    0.0000 C   0  0  0  0  0  0  0  0  0  0  0  0
   -9.3705    0.6111    0.0000 O   0  0  0  0  0  0  0  0  0  0  0  0
  -11.6205   -0.6879    0.0000 N   0  0  0  0  0  0  0  0  0  0  0  0
  -12.3705    0.6111    0.0000 O   0  0  0  0  0  0  0  0  0  0  0  0
   -3.0367   -6.0474    0.0000 O   0  0  0  0  0  0  0  0  0  0  0  0
   -2.1015   -7.2201    0.0000 C   0  0  0  0  0  0  0  0  0  0  0  0
   -0.7500   -7.8710    0.0000 C   0  0  0  0  0  0  0  0  0  0  0  0
    0.7500   -7.8710    0.0000 C   0  0  0  0  0  0  0  0  0  0  0  0
  1  2  1  0
  2  3  1  0
  3  4  2  0
  4  5  1  0
  5  6  2  0
  6  7  1  0
  7  8  2  0
  7  9  1  0
  9 10  1  0
 10 11  1  0
 11 12  2  0
 12 13  1  0
 13 14  2  0
 14 15  1  0
 15 16  2  0
 16 17  1  0
 17 18  1  0
 18 19  2  0
 18 20  1  0
 20 21  1  0
 21 22  1  0
 22 23  1  0
 23 24  1  0
 24 25  1  0
 25 26  1  0
 26 27  2  0
 26 28  1  0
 28 29  1  0
 20 30  1  0
 30 31  1  0
 31 32  1  0
 32 33  1  0
  8  3  1  0
 16 11  1  0
 33  5  1  0
M  END
>  <molecule_chembl_id>  (607) 
CHEMBL1631916

>  <canonical_smiles>  (607) 
COc1cc2cc(c1)COc1ccccc1NC(=O)C(CCCCCC(=O)NO)OCCC2

>  <pchembl_value_mean>  (607) 
6.346667

>  <document_chembl_id>  (607) 
CHEMBL1629537

$$$$

     RDKit          2D

 17 18  0  0  0  0  0  0  0  0999 V2000
    6.0000    0.0000    0.0000 O   0  0  0  0  0  0  0  0  0  0  0  0
    5.2500   -1.2990    0.0000 C   0  0  0  0  0  0  0  0  0  0  0  0
    3.7500   -1.2990    0.0000 C   0  0  0  0  0  0  0  0  0  0  0  0
    3.0000    0.0000    0.0000 C   0  0  0  0  0  0  0  0  0  0  0  0
    1.5000    0.0000    0.0000 C   0  0  0  0  0  0  0  0  0  0  0  0
    0.7500   -1.2990    0.0000 C   0  0  0  0  0  0  0  0  0  0  0  0
   -0.7500   -1.2990    0.0000 C   0  0  0  0  0  0  0  0  0  0  0  0
   -1.5000    0.0000    0.0000 C   0  0  0  0  0  0  0  0  0  0  0  0
   -3.0000    0.0000    0.0000 C   0  0  0  0  0  0  0  0  0  0  0  0
   -3.8817   -1.2135    0.0000 C   0  0  0  0  0  0  0  0  0  0  0  0
   -5.3083   -0.7500    0.0000 C   0  0  0  0  0  0  0  0  0  0  0  0
   -5.3083    0.7500    0.0000 C   0  0  0  0  0  0  0  0  0  0  0  0
   -3.8817    1.2135    0.0000 S   0  0  0  0  0  0  0  0  0  0  0  0
   -0.7500    1.2990    0.0000 C   0  0  0  0  0  0  0  0  0  0  0  0
    0.7500    1.2990    0.0000 C   0  0  0  0  0  0  0  0  0  0  0  0
    6.0000   -2.5981    0.0000 N   0  0  0  0  0  0  0  0  0  0  0  0
    7.5000   -2.5981    0.0000 O   0  0  0  0  0  0  0  0  0  0  0  0
  1  2  2  0
  2  3  1  0
  3  4  2  3
  4  5  1  0
  5  6  2  0
  6  7  1  0
  7  8  2  0
  8  9  1  0
  9 10  2  0
 10 11  1  0
 11 12  2  0
 12 13  1  0
  8 14  1  0
 14 15  2  0
  2 16  1  0
 16 17  1  0
 15  5  1  0
 13  9  1  0
M  END
>  <molecule_chembl_id>  (608) 
CHEMBL561212

>  <canonical_smiles>  (608) 
O=C(C=Cc1ccc(-c2cccs2)cc1)NO

>  <pchembl_value_mean>  (608) 
6.35

>  <document_chembl_id>  (608) 
CHEMBL1158371

$$$$

     RDKit          2D

 32 35  0  0  0  0  0  0  0  0999 V2000
    3.7500   -1.2990    0.0000 C   0  0  0  0  0  0  0  0  0  0  0  0
    3.0000    0.0000    0.0000 O   0  0  0  0  0  0  0  0  0  0  0  0
    1.5000    0.0000    0.0000 C   0  0  0  0  0  0  0  0  0  0  0  0
    0.7500   -1.2990    0.0000 C   0  0  0  0  0  0  0  0  0  0  0  0
   -0.7500   -1.2990    0.0000 C   0  0  0  0  0  0  0  0  0  0  0  0
   -1.5000    0.0000    0.0000 C   0  0  0  0  0  0  0  0  0  0  0  0
   -0.7500    1.2990    0.0000 C   0  0  0  0  0  0  0  0  0  0  0  0
   -1.2135    2.7256    0.0000 C   0  0  0  0  0  0  0  0  0  0  0  0
   -2.6401    3.1891    0.0000 C   0  0  0  0  0  0  0  0  0  0  0  0
   -2.9520    4.6564    0.0000 C   0  0  0  0  0  0  0  0  0  0  0  0
   -4.3786    5.1199    0.0000 C   0  0  0  0  0  0  0  0  0  0  0  0
   -4.6904    6.5871    0.0000 C   0  0  0  0  0  0  0  0  0  0  0  0
   -6.1170    7.0506    0.0000 C   0  0  0  0  0  0  0  0  0  0  0  0
   -6.4289    8.5179    0.0000 C   0  0  0  0  0  0  0  0  0  0  0  0
   -7.8555    8.9814    0.0000 C   0  0  0  0  0  0  0  0  0  0  0  0
   -8.9702    7.9777    0.0000 O   0  0  0  0  0  0  0  0  0  0  0  0
   -8.1673   10.4486    0.0000 N   0  0  0  0  0  0  0  0  0  0  0  0
   -9.5939   10.9121    0.0000 O   0  0  0  0  0  0  0  0  0  0  0  0
   -3.7548    2.1855    0.0000 C   0  0  0  0  0  0  0  0  0  0  0  0
   -3.5980    0.6937    0.0000 C   0  0  0  0  0  0  0  0  0  0  0  0
   -4.9684    0.0836    0.0000 N   0  0  0  0  0  0  0  0  0  0  0  0
   -5.9720    1.1983    0.0000 C   0  0  0  0  0  0  0  0  0  0  0  0
   -7.4720    1.1983    0.0000 C   0  0  0  0  0  0  0  0  0  0  0  0
   -8.2220   -0.1008    0.0000 O   0  0  0  0  0  0  0  0  0  0  0  0
   -9.7220   -0.1008    0.0000 C   0  0  0  0  0  0  0  0  0  0  0  0
   -8.2220    2.4973    0.0000 C   0  0  0  0  0  0  0  0  0  0  0  0
   -7.4720    3.7964    0.0000 C   0  0  0  0  0  0  0  0  0  0  0  0
   -5.9720    3.7964    0.0000 C   0  0  0  0  0  0  0  0  0  0  0  0
   -5.2220    2.4973    0.0000 C   0  0  0  0  0  0  0  0  0  0  0  0
    0.0000    3.6073    0.0000 C   0  0  0  0  0  0  0  0  0  0  0  0
    1.2135    2.7256    0.0000 N   0  0  0  0  0  0  0  0  0  0  0  0
    0.7500    1.2990    0.0000 C   0  0  0  0  0  0  0  0  0  0  0  0
  1  2  1  0
  2  3  1  0
  3  4  2  0
  4  5  1  0
  5  6  2  0
  6  7  1  0
  7  8  1  0
  8  9  1  0
  9 10  1  0
 10 11  1  0
 11 12  1  0
 12 13  1  0
 13 14  1  0
 14 15  1  0
 15 16  2  0
 15 17  1  0
 17 18  1  0
  9 19  1  0
 19 20  2  0
 20 21  1  0
 21 22  1  0
 22 23  2  0
 23 24  1  0
 24 25  1  0
 23 26  1  0
 26 27  2  0
 27 28  1  0
 28 29  2  0
  8 30  2  0
 30 31  1  0
 31 32  1  0
 32  3  1  0
 32  7  2  0
 29 19  1  0
 29 22  1  0
M  END
>  <molecule_chembl_id>  (609) 
CHEMBL561483

>  <canonical_smiles>  (609) 
COc1cccc2c(C(CCCCCC(=O)NO)c3c[nH]c4c(OC)cccc34)c[nH]c12

>  <pchembl_value_mean>  (609) 
6.36

>  <document_chembl_id>  (609) 
CHEMBL1153591

$$$$

     RDKit          2D

 35 38  0  0  0  0  0  0  0  0999 V2000
  -13.2499   -9.3683    0.0000 O   0  0  0  0  0  0  0  0  0  0  0  0
  -12.9381   -7.9010    0.0000 C   0  0  0  0  0  0  0  0  0  0  0  0
  -11.5115   -7.4375    0.0000 C   0  0  0  0  0  0  0  0  0  0  0  0
  -10.3968   -8.4412    0.0000 C   0  0  0  0  0  0  0  0  0  0  0  0
   -8.9702   -7.9777    0.0000 C   0  0  0  0  0  0  0  0  0  0  0  0
   -8.6583   -6.5105    0.0000 C   0  0  0  0  0  0  0  0  0  0  0  0
   -7.2317   -6.0469    0.0000 C   0  0  0  0  0  0  0  0  0  0  0  0
   -6.1170   -7.0506    0.0000 C   0  0  0  0  0  0  0  0  0  0  0  0
   -4.6904   -6.5871    0.0000 O   0  0  0  0  0  0  0  0  0  0  0  0
   -4.3786   -5.1199    0.0000 C   0  0  0  0  0  0  0  0  0  0  0  0
   -2.9520   -4.6564    0.0000 C   0  0  0  0  0  0  0  0  0  0  0  0
   -2.6401   -3.1891    0.0000 C   0  0  0  0  0  0  0  0  0  0  0  0
   -1.2135   -2.7256    0.0000 C   0  0  0  0  0  0  0  0  0  0  0  0
   -0.0000   -3.6073    0.0000 C   0  0  0  0  0  0  0  0  0  0  0  0
    1.2135   -2.7256    0.0000 N   0  0  0  0  0  0  0  0  0  0  0  0
    0.7500   -1.2990    0.0000 C   0  0  0  0  0  0  0  0  0  0  0  0
    1.5000    0.0000    0.0000 C   0  0  0  0  0  0  0  0  0  0  0  0
    0.7500    1.2990    0.0000 C   0  0  0  0  0  0  0  0  0  0  0  0
   -0.7500    1.2990    0.0000 C   0  0  0  0  0  0  0  0  0  0  0  0
   -1.5000    0.0000    0.0000 C   0  0  0  0  0  0  0  0  0  0  0  0
   -0.7500   -1.2990    0.0000 C   0  0  0  0  0  0  0  0  0  0  0  0
   -1.8373   -5.6601    0.0000 N   0  0  0  0  0  0  0  0  0  0  0  0
   -2.1491   -7.1273    0.0000 C   0  0  0  0  0  0  0  0  0  0  0  0
   -3.5757   -7.5908    0.0000 O   0  0  0  0  0  0  0  0  0  0  0  0
   -1.0344   -8.1310    0.0000 C   0  0  0  0  0  0  0  0  0  0  0  0
   -1.3463   -9.5982    0.0000 C   0  0  0  0  0  0  0  0  0  0  0  0
   -2.7729  -10.0617    0.0000 C   0  0  0  0  0  0  0  0  0  0  0  0
   -3.0847  -11.5290    0.0000 C   0  0  0  0  0  0  0  0  0  0  0  0
   -1.9700  -12.5326    0.0000 C   0  0  0  0  0  0  0  0  0  0  0  0
   -0.5434  -12.0691    0.0000 C   0  0  0  0  0  0  0  0  0  0  0  0
   -0.2316  -10.6019    0.0000 C   0  0  0  0  0  0  0  0  0  0  0  0
   -6.4289   -8.5179    0.0000 C   0  0  0  0  0  0  0  0  0  0  0  0
   -7.8555   -8.9814    0.0000 C   0  0  0  0  0  0  0  0  0  0  0  0
  -14.0528   -6.8974    0.0000 N   0  0  0  0  0  0  0  0  0  0  0  0
  -15.4794   -7.3609    0.0000 O   0  0  0  0  0  0  0  0  0  0  0  0
  1  2  2  0
  2  3  1  0
  3  4  2  3
  4  5  1  0
  5  6  2  0
  6  7  1  0
  7  8  2  0
  8  9  1  0
  9 10  1  0
 10 11  1  0
 11 12  1  0
 12 13  1  0
 13 14  2  0
 14 15  1  0
 15 16  1  0
 16 17  2  0
 17 18  1  0
 18 19  2  0
 19 20  1  0
 20 21  2  0
 11 22  1  0
 22 23  1  0
 23 24  2  0
 23 25  1  0
 25 26  1  0
 26 27  2  0
 27 28  1  0
 28 29  2  0
 29 30  1  0
 30 31  2  0
  8 32  1  0
 32 33  2  0
  2 34  1  0
 34 35  1  0
 33  5  1  0
 21 13  1  0
 31 26  1  0
 21 16  1  0
M  END
>  <molecule_chembl_id>  (610) 
CHEMBL3233696

>  <canonical_smiles>  (610) 
O=C(C=Cc1ccc(OCC(Cc2c[nH]c3ccccc23)NC(=O)Cc2ccccc2)cc1)NO

>  <pchembl_value_mean>  (610) 
6.36

>  <document_chembl_id>  (610) 
CHEMBL3232921

$$$$

     RDKit          2D

 28 30  0  0  0  0  0  0  0  0999 V2000
    3.0000    0.0000    0.0000 N   0  0  0  0  0  0  0  0  0  0  0  0
    1.5000    0.0000    0.0000 C   0  0  0  0  0  0  0  0  0  0  0  0
    0.7500   -1.2990    0.0000 C   0  0  0  0  0  0  0  0  0  0  0  0
   -0.7500   -1.2990    0.0000 C   0  0  0  0  0  0  0  0  0  0  0  0
   -1.5000    0.0000    0.0000 C   0  0  0  0  0  0  0  0  0  0  0  0
   -0.7500    1.2990    0.0000 C   0  0  0  0  0  0  0  0  0  0  0  0
    0.7500    1.2990    0.0000 C   0  0  0  0  0  0  0  0  0  0  0  0
    1.5000    2.5981    0.0000 N   0  0  0  0  0  0  0  0  0  0  0  0
    0.7500    3.8971    0.0000 C   0  0  0  0  0  0  0  0  0  0  0  0
   -0.7500    3.8971    0.0000 O   0  0  0  0  0  0  0  0  0  0  0  0
    1.5000    5.1962    0.0000 C   0  0  0  0  0  0  0  0  0  0  0  0
    3.0000    5.1962    0.0000 C   0  0  0  0  0  0  0  0  0  0  0  0
    3.7500    6.4952    0.0000 C   0  0  0  0  0  0  0  0  0  0  0  0
    3.0000    7.7942    0.0000 C   0  0  0  0  0  0  0  0  0  0  0  0
    3.7500    9.0933    0.0000 C   0  0  0  0  0  0  0  0  0  0  0  0
    5.2500    9.0933    0.0000 S   0  0  0  0  0  0  0  0  0  0  0  0
    6.0000   10.3923    0.0000 C   0  0  0  0  0  0  0  0  0  0  0  0
    7.5000   10.3923    0.0000 N   0  0  0  0  0  0  0  0  0  0  0  0
    8.2500   11.6913    0.0000 C   0  0  0  0  0  0  0  0  0  0  0  0
    7.5000   12.9904    0.0000 C   0  0  0  0  0  0  0  0  0  0  0  0
    6.0000   12.9904    0.0000 C   0  0  0  0  0  0  0  0  0  0  0  0
    5.2500   14.2894    0.0000 C   0  0  0  0  0  0  0  0  0  0  0  0
    4.5000   15.5885    0.0000 F   0  0  0  0  0  0  0  0  0  0  0  0
    6.5490   15.0394    0.0000 F   0  0  0  0  0  0  0  0  0  0  0  0
    3.9510   13.5394    0.0000 F   0  0  0  0  0  0  0  0  0  0  0  0
    5.2500   11.6913    0.0000 N   0  0  0  0  0  0  0  0  0  0  0  0
    1.5000    7.7942    0.0000 C   0  0  0  0  0  0  0  0  0  0  0  0
    0.7500    6.4952    0.0000 C   0  0  0  0  0  0  0  0  0  0  0  0
  1  2  1  0
  2  3  2  0
  3  4  1  0
  4  5  2  0
  5  6  1  0
  6  7  2  0
  7  8  1  0
  8  9  1  0
  9 10  2  0
  9 11  1  0
 11 12  2  0
 12 13  1  0
 13 14  2  0
 14 15  1  0
 15 16  1  0
 16 17  1  0
 17 18  2  0
 18 19  1  0
 19 20  2  0
 20 21  1  0
 21 22  1  0
 22 23  1  0
 22 24  1  0
 22 25  1  0
 21 26  2  0
 14 27  1  0
 27 28  2  0
  7  2  1  0
 28 11  1  0
 26 17  1  0
M  END
>  <molecule_chembl_id>  (611) 
CHEMBL4437852

>  <canonical_smiles>  (611) 
Nc1ccccc1NC(=O)c1ccc(CSc2nccc(C(F)(F)F)n2)cc1

>  <pchembl_value_mean>  (611) 
6.36

>  <document_chembl_id>  (611) 
CHEMBL4396885

$$$$

     RDKit          2D

 33 36  0  0  0  0  0  0  0  0999 V2000
    3.7500    1.2990    0.0000 O   0  0  0  0  0  0  0  0  0  0  0  0
    3.0000    0.0000    0.0000 C   0  0  0  0  0  0  0  0  0  0  0  0
    3.7500   -1.2990    0.0000 N   0  0  0  0  0  0  0  0  0  0  0  0
    5.2500   -1.2990    0.0000 O   0  0  0  0  0  0  0  0  0  0  0  0
    1.5000    0.0000    0.0000 C   0  0  0  0  0  0  0  0  0  0  0  0
    0.7500   -1.2990    0.0000 C   0  0  0  0  0  0  0  0  0  0  0  0
   -0.7500   -1.2990    0.0000 C   0  0  0  0  0  0  0  0  0  0  0  0
   -1.5000    0.0000    0.0000 C   0  0  0  0  0  0  0  0  0  0  0  0
   -3.0000    0.0000    0.0000 C   0  0  0  0  0  0  0  0  0  0  0  0
   -3.7500    1.2990    0.0000 N   0  0  0  0  0  0  0  0  0  0  0  0
   -5.2500    1.2990    0.0000 C   0  0  0  0  0  0  0  0  0  0  0  0
   -6.0000    0.0000    0.0000 O   0  0  0  0  0  0  0  0  0  0  0  0
   -6.0000    2.5981    0.0000 C   0  0  0  0  0  0  0  0  0  0  0  0
   -7.4918    2.7549    0.0000 N   0  0  0  0  0  0  0  0  0  0  0  0
   -7.8037    4.2221    0.0000 C   0  0  0  0  0  0  0  0  0  0  0  0
   -9.1740    4.8322    0.0000 C   0  0  0  0  0  0  0  0  0  0  0  0
   -9.3308    6.3240    0.0000 C   0  0  0  0  0  0  0  0  0  0  0  0
  -10.7011    6.9341    0.0000 C   0  0  0  0  0  0  0  0  0  0  0  0
  -11.9146    6.0524    0.0000 C   0  0  0  0  0  0  0  0  0  0  0  0
  -11.7578    4.5606    0.0000 C   0  0  0  0  0  0  0  0  0  0  0  0
  -10.3875    3.9505    0.0000 C   0  0  0  0  0  0  0  0  0  0  0  0
   -6.5046    4.9721    0.0000 C   0  0  0  0  0  0  0  0  0  0  0  0
   -5.3899    3.9684    0.0000 C   0  0  0  0  0  0  0  0  0  0  0  0
   -3.9227    4.2803    0.0000 C   0  0  0  0  0  0  0  0  0  0  0  0
   -2.9190    3.1655    0.0000 C   0  0  0  0  0  0  0  0  0  0  0  0
   -1.4518    3.4774    0.0000 C   0  0  0  0  0  0  0  0  0  0  0  0
   -0.9882    4.9040    0.0000 C   0  0  0  0  0  0  0  0  0  0  0  0
    0.4790    5.2159    0.0000 Cl  0  0  0  0  0  0  0  0  0  0  0  0
   -1.9919    6.0187    0.0000 C   0  0  0  0  0  0  0  0  0  0  0  0
   -1.5284    7.4453    0.0000 Cl  0  0  0  0  0  0  0  0  0  0  0  0
   -3.4591    5.7068    0.0000 C   0  0  0  0  0  0  0  0  0  0  0  0
   -0.7500    1.2990    0.0000 C   0  0  0  0  0  0  0  0  0  0  0  0
    0.7500    1.2990    0.0000 C   0  0  0  0  0  0  0  0  0  0  0  0
  1  2  2  0
  2  3  1  0
  3  4  1  0
  2  5  1  0
  5  6  2  0
  6  7  1  0
  7  8  2  0
  8  9  1  0
  9 10  1  0
 10 11  1  0
 11 12  2  0
 11 13  1  0
 13 14  1  0
 14 15  1  0
 15 16  1  0
 16 17  2  0
 17 18  1  0
 18 19  2  0
 19 20  1  0
 20 21  2  0
 15 22  2  0
 22 23  1  0
 23 24  1  0
 24 25  2  0
 25 26  1  0
 26 27  2  0
 27 28  1  0
 27 29  1  0
 29 30  1  0
 29 31  2  0
  8 32  1  0
 32 33  2  0
 33  5  1  0
 23 13  2  0
 31 24  1  0
 21 16  1  0
M  END
>  <molecule_chembl_id>  (612) 
CHEMBL3670678

>  <canonical_smiles>  (612) 
O=C(NO)c1ccc(CNC(=O)c2[nH]c(-c3ccccc3)cc2-c2ccc(Cl)c(Cl)c2)cc1

>  <pchembl_value_mean>  (612) 
6.36

>  <document_chembl_id>  (612) 
CHEMBL3638813

$$$$

     RDKit          2D

 29 32  0  0  0  0  0  0  0  0999 V2000
    3.0000    0.0000    0.0000 N   0  0  0  0  0  0  0  0  0  0  0  0
    1.5000    0.0000    0.0000 C   0  0  0  0  0  0  0  0  0  0  0  0
    0.7500   -1.2990    0.0000 C   0  0  0  0  0  0  0  0  0  0  0  0
   -0.7500   -1.2990    0.0000 C   0  0  0  0  0  0  0  0  0  0  0  0
   -1.5000    0.0000    0.0000 C   0  0  0  0  0  0  0  0  0  0  0  0
   -0.7500    1.2990    0.0000 C   0  0  0  0  0  0  0  0  0  0  0  0
    0.7500    1.2990    0.0000 C   0  0  0  0  0  0  0  0  0  0  0  0
    1.5000    2.5981    0.0000 N   0  0  0  0  0  0  0  0  0  0  0  0
    0.7500    3.8971    0.0000 C   0  0  0  0  0  0  0  0  0  0  0  0
   -0.7500    3.8971    0.0000 O   0  0  0  0  0  0  0  0  0  0  0  0
    1.5000    5.1962    0.0000 C   0  0  0  0  0  0  0  0  0  0  0  0
    3.0000    5.1962    0.0000 C   0  0  0  0  0  0  0  0  0  0  0  0
    3.7500    6.4952    0.0000 C   0  0  0  0  0  0  0  0  0  0  0  0
    3.0000    7.7942    0.0000 C   0  0  0  0  0  0  0  0  0  0  0  0
    3.7500    9.0933    0.0000 C   0  0  0  0  0  0  0  0  0  0  0  0
    5.2500    9.0933    0.0000 S   0  0  0  0  0  0  0  0  0  0  0  0
    6.0000   10.3923    0.0000 C   0  0  0  0  0  0  0  0  0  0  0  0
    5.3899   11.7626    0.0000 N   0  0  0  0  0  0  0  0  0  0  0  0
    6.5046   12.7663    0.0000 C   0  0  0  0  0  0  0  0  0  0  0  0
    6.3478   14.2581    0.0000 C   0  0  0  0  0  0  0  0  0  0  0  0
    7.5613   15.1398    0.0000 C   0  0  0  0  0  0  0  0  0  0  0  0
    7.4046   16.6316    0.0000 C   0  0  0  0  0  0  0  0  0  0  0  0
    6.0342   17.2417    0.0000 C   0  0  0  0  0  0  0  0  0  0  0  0
    4.8207   16.3600    0.0000 C   0  0  0  0  0  0  0  0  0  0  0  0
    4.9775   14.8682    0.0000 C   0  0  0  0  0  0  0  0  0  0  0  0
    7.8037   12.0163    0.0000 C   0  0  0  0  0  0  0  0  0  0  0  0
    7.4918   10.5491    0.0000 S   0  0  0  0  0  0  0  0  0  0  0  0
    1.5000    7.7942    0.0000 C   0  0  0  0  0  0  0  0  0  0  0  0
    0.7500    6.4952    0.0000 C   0  0  0  0  0  0  0  0  0  0  0  0
  1  2  1  0
  2  3  2  0
  3  4  1  0
  4  5  2  0
  5  6  1  0
  6  7  2  0
  7  8  1  0
  8  9  1  0
  9 10  2  0
  9 11  1  0
 11 12  2  0
 12 13  1  0
 13 14  2  0
 14 15  1  0
 15 16  1  0
 16 17  1  0
 17 18  2  0
 18 19  1  0
 19 20  1  0
 20 21  2  0
 21 22  1  0
 22 23  2  0
 23 24  1  0
 24 25  2  0
 19 26  1  0
 26 27  1  0
 14 28  1  0
 28 29  2  0
  7  2  1  0
 29 11  1  0
 27 17  1  0
 25 20  1  0
M  END
>  <molecule_chembl_id>  (613) 
CHEMBL2407716

>  <canonical_smiles>  (613) 
Nc1ccccc1NC(=O)c1ccc(CSC2=NC(c3ccccc3)CS2)cc1

>  <pchembl_value_mean>  (613) 
6.36

>  <document_chembl_id>  (613) 
CHEMBL2407081

$$$$

     RDKit          2D

 35 37  0  0  0  0  0  0  0  0999 V2000
    5.2500   -3.8971    0.0000 C   0  0  0  0  0  0  0  0  0  0  0  0
    3.7500   -3.8971    0.0000 C   0  0  0  0  0  0  0  0  0  0  0  0
    3.0000   -2.5981    0.0000 O   0  0  0  0  0  0  0  0  0  0  0  0
    1.5000   -2.5981    0.0000 C   0  0  0  0  0  0  0  0  0  0  0  0
    0.7500   -3.8971    0.0000 C   0  0  0  0  0  0  0  0  0  0  0  0
   -0.7500   -3.8971    0.0000 C   0  0  0  0  0  0  0  0  0  0  0  0
   -1.5000   -5.1962    0.0000 N   0  0  0  0  0  0  0  0  0  0  0  0
   -3.0000   -5.1962    0.0000 C   0  0  0  0  0  0  0  0  0  0  0  0
   -3.7500   -3.8971    0.0000 O   0  0  0  0  0  0  0  0  0  0  0  0
   -3.7500   -6.4952    0.0000 C   0  0  0  0  0  0  0  0  0  0  0  0
   -5.2500   -6.4952    0.0000 C   0  0  0  0  0  0  0  0  0  0  0  0
   -6.0000   -7.7942    0.0000 C   0  0  0  0  0  0  0  0  0  0  0  0
   -7.5000   -7.7942    0.0000 C   0  0  0  0  0  0  0  0  0  0  0  0
   -8.2500   -9.0933    0.0000 C   0  0  0  0  0  0  0  0  0  0  0  0
   -9.7500   -9.0933    0.0000 C   0  0  0  0  0  0  0  0  0  0  0  0
  -10.5000  -10.3923    0.0000 C   0  0  0  0  0  0  0  0  0  0  0  0
   -9.7500  -11.6913    0.0000 O   0  0  0  0  0  0  0  0  0  0  0  0
  -12.0000  -10.3923    0.0000 N   0  0  0  0  0  0  0  0  0  0  0  0
  -12.7500  -11.6913    0.0000 C   0  0  0  0  0  0  0  0  0  0  0  0
  -14.2500  -11.6913    0.0000 C   0  0  0  0  0  0  0  0  0  0  0  0
  -15.0000  -12.9904    0.0000 C   0  0  0  0  0  0  0  0  0  0  0  0
  -14.2500  -14.2894    0.0000 C   0  0  0  0  0  0  0  0  0  0  0  0
  -12.7500  -14.2894    0.0000 C   0  0  0  0  0  0  0  0  0  0  0  0
  -12.0000  -12.9904    0.0000 C   0  0  0  0  0  0  0  0  0  0  0  0
  -10.5000  -12.9904    0.0000 N   0  0  0  0  0  0  0  0  0  0  0  0
   -1.5000   -2.5981    0.0000 C   0  0  0  0  0  0  0  0  0  0  0  0
   -0.7500   -1.2990    0.0000 C   0  0  0  0  0  0  0  0  0  0  0  0
    0.7500   -1.2990    0.0000 C   0  0  0  0  0  0  0  0  0  0  0  0
    1.5000    0.0000    0.0000 O   0  0  0  0  0  0  0  0  0  0  0  0
    0.7500    1.2990    0.0000 C   0  0  0  0  0  0  0  0  0  0  0  0
   -0.7500    1.2990    0.0000 C   0  0  0  0  0  0  0  0  0  0  0  0
   -1.5000    2.5981    0.0000 N   0  0  0  0  0  4  0  0  0  0  0  0
   -3.0000    2.5981    0.0000 O   0  0  0  0  0  0  0  0  0  0  0  0
   -0.7500    3.8971    0.0000 O   0  0  0  0  0  1  0  0  0  0  0  0
   -1.5000    0.0000    0.0000 C   0  0  0  0  0  0  0  0  0  0  0  0
  1  2  1  0
  2  3  1  0
  3  4  1  0
  4  5  2  0
  5  6  1  0
  6  7  1  0
  7  8  1  0
  8  9  2  0
  8 10  1  0
 10 11  1  0
 11 12  1  0
 12 13  1  0
 13 14  1  0
 14 15  1  0
 15 16  1  0
 16 17  2  0
 16 18  1  0
 18 19  1  0
 19 20  2  0
 20 21  1  0
 21 22  2  0
 22 23  1  0
 23 24  2  0
 24 25  1  0
  6 26  2  0
 26 27  1  0
 27 28  2  0
 28 29  1  0
 29 30  1  0
 30 31  1  0
 31 32  1  0
 32 33  2  0
 32 34  1  0
 31 35  2  0
 28  4  1  0
 24 19  1  0
 35 27  1  0
M  CHG  2  32   1  34  -1
M  END
>  <molecule_chembl_id>  (614) 
CHEMBL4069623

>  <canonical_smiles>  (614) 
CCOc1cc(NC(=O)CCCCCCC(=O)Nc2ccccc2N)cc2c1OCC([N+](=O)[O-])=C2

>  <pchembl_value_mean>  (614) 
6.36

>  <document_chembl_id>  (614) 
CHEMBL4052685

$$$$

     RDKit          2D

 34 37  0  0  0  0  0  0  0  0999 V2000
   -3.0000   -7.7942    0.0000 C   0  0  0  0  0  0  0  0  0  0  0  0
   -1.5000   -7.7942    0.0000 O   0  0  0  0  0  0  0  0  0  0  0  0
   -0.7500   -6.4952    0.0000 C   0  0  0  0  0  0  0  0  0  0  0  0
   -1.5000   -5.1962    0.0000 C   0  0  0  0  0  0  0  0  0  0  0  0
   -0.7500   -3.8971    0.0000 C   0  0  0  0  0  0  0  0  0  0  0  0
    0.7500   -3.8971    0.0000 C   0  0  0  0  0  0  0  0  0  0  0  0
    1.5000   -2.5981    0.0000 C   0  0  0  0  0  0  0  0  0  0  0  0
    3.0000   -2.5981    0.0000 O   0  0  0  0  0  0  0  0  0  0  0  0
    0.7500   -1.2990    0.0000 C   0  0  0  0  0  0  0  0  0  0  0  0
    1.5000    0.0000    0.0000 C   0  0  0  0  0  0  0  0  0  0  0  0
    0.7500    1.2990    0.0000 C   0  0  0  0  0  0  0  0  0  0  0  0
   -0.7500    1.2990    0.0000 C   0  0  0  0  0  0  0  0  0  0  0  0
   -1.5000    0.0000    0.0000 C   0  0  0  0  0  0  0  0  0  0  0  0
   -2.9672    0.3119    0.0000 C   0  0  0  0  0  0  0  0  0  0  0  0
   -3.1240    1.8037    0.0000 C   0  0  0  0  0  0  0  0  0  0  0  0
   -1.7537    2.4138    0.0000 N   0  0  0  0  0  0  0  0  0  0  0  0
   -1.4418    3.8810    0.0000 S   0  0  0  0  0  0  0  0  0  0  0  0
    0.0254    3.5691    0.0000 O   0  0  0  0  0  0  0  0  0  0  0  0
   -2.9090    4.1928    0.0000 O   0  0  0  0  0  0  0  0  0  0  0  0
   -1.1300    5.3482    0.0000 C   0  0  0  0  0  0  0  0  0  0  0  0
    0.2966    5.8117    0.0000 C   0  0  0  0  0  0  0  0  0  0  0  0
    0.6085    7.2789    0.0000 C   0  0  0  0  0  0  0  0  0  0  0  0
   -0.5062    8.2826    0.0000 C   0  0  0  0  0  0  0  0  0  0  0  0
   -1.9328    7.8191    0.0000 C   0  0  0  0  0  0  0  0  0  0  0  0
   -3.0475    8.8228    0.0000 C   0  0  0  0  0  0  0  0  0  0  0  0
   -2.7357   10.2900    0.0000 C   0  0  0  0  0  0  0  0  0  0  0  0
   -3.8504   11.2937    0.0000 C   0  0  0  0  0  0  0  0  0  0  0  0
   -5.2770   10.8302    0.0000 O   0  0  0  0  0  0  0  0  0  0  0  0
   -3.5385   12.7610    0.0000 N   0  0  0  0  0  0  0  0  0  0  0  0
   -4.6532   13.7646    0.0000 O   0  0  0  0  0  0  0  0  0  0  0  0
   -2.2447    6.3519    0.0000 C   0  0  0  0  0  0  0  0  0  0  0  0
   -0.7500   -1.2990    0.0000 C   0  0  0  0  0  0  0  0  0  0  0  0
    1.5000   -5.1962    0.0000 C   0  0  0  0  0  0  0  0  0  0  0  0
    0.7500   -6.4952    0.0000 C   0  0  0  0  0  0  0  0  0  0  0  0
  1  2  1  0
  2  3  1  0
  3  4  2  0
  4  5  1  0
  5  6  2  0
  6  7  1  0
  7  8  2  0
  7  9  1  0
  9 10  2  0
 10 11  1  0
 11 12  2  0
 12 13  1  0
 13 14  1  0
 14 15  2  0
 15 16  1  0
 16 17  1  0
 17 18  2  0
 17 19  2  0
 17 20  1  0
 20 21  2  0
 21 22  1  0
 22 23  2  0
 23 24  1  0
 24 25  1  0
 25 26  2  3
 26 27  1  0
 27 28  2  0
 27 29  1  0
 29 30  1  0
 24 31  2  0
 13 32  2  0
  6 33  1  0
 33 34  2  0
 34  3  1  0
 32  9  1  0
 16 12  1  0
 31 20  1  0
M  END
>  <molecule_chembl_id>  (615) 
CHEMBL4213856

>  <canonical_smiles>  (615) 
COc1ccc(C(=O)c2ccc3c(ccn3S(=O)(=O)c3cccc(C=CC(=O)NO)c3)c2)cc1

>  <pchembl_value_mean>  (615) 
6.37

>  <document_chembl_id>  (615) 
CHEMBL4196108

$$$$

     RDKit          2D

 39 43  0  0  0  0  0  0  0  0999 V2000
    6.0000   -0.0000    0.0000 C   0  0  0  0  0  0  0  0  0  0  0  0
    5.2500   -1.2990    0.0000 C   0  0  0  0  0  0  0  0  0  0  0  0
    3.7500   -1.2990    0.0000 O   0  0  0  0  0  0  0  0  0  0  0  0
    3.0000   -2.5981    0.0000 C   0  0  0  0  0  0  0  0  0  0  0  0
    3.7500   -3.8971    0.0000 C   0  0  0  0  0  0  0  0  0  0  0  0
    3.0000   -5.1962    0.0000 C   0  0  0  0  0  0  0  0  0  0  0  0
    1.5000   -5.1962    0.0000 C   0  0  0  0  0  0  0  0  0  0  0  0
    0.7500   -6.4952    0.0000 O   0  0  0  0  0  0  0  0  0  0  0  0
   -0.7500   -6.4952    0.0000 C   0  0  0  0  0  0  0  0  0  0  0  0
   -1.5000   -5.1962    0.0000 C   0  0  0  0  0  0  0  0  0  0  0  0
   -3.0000   -5.1962    0.0000 C   0  0  0  0  0  0  0  0  0  0  0  0
   -3.7500   -6.4952    0.0000 N   0  0  0  0  0  0  0  0  0  0  0  0
   -5.2500   -6.4952    0.0000 C   0  0  0  0  0  0  0  0  0  0  0  0
   -6.0000   -5.1962    0.0000 N   0  0  0  0  0  0  0  0  0  0  0  0
   -7.5000   -5.1962    0.0000 C   0  0  0  0  0  0  0  0  0  0  0  0
   -8.2500   -6.4952    0.0000 C   0  0  0  0  0  0  0  0  0  0  0  0
   -9.7500   -6.4952    0.0000 C   0  0  0  0  0  0  0  0  0  0  0  0
  -10.5000   -7.7942    0.0000 O   0  0  0  0  0  0  0  0  0  0  0  0
  -10.5000   -5.1962    0.0000 N   0  0  0  0  0  0  0  0  0  0  0  0
  -12.0000   -5.1962    0.0000 O   0  0  0  0  0  0  0  0  0  0  0  0
   -7.5000   -7.7942    0.0000 C   0  0  0  0  0  0  0  0  0  0  0  0
   -6.0000   -7.7942    0.0000 N   0  0  0  0  0  0  0  0  0  0  0  0
   -3.0000   -7.7942    0.0000 C   0  0  0  0  0  0  0  0  0  0  0  0
   -1.5000   -7.7942    0.0000 C   0  0  0  0  0  0  0  0  0  0  0  0
    0.7500   -3.8971    0.0000 C   0  0  0  0  0  0  0  0  0  0  0  0
    1.5000   -2.5981    0.0000 C   0  0  0  0  0  0  0  0  0  0  0  0
    0.7500   -1.2990    0.0000 C   0  0  0  0  0  0  0  0  0  0  0  0
    1.5000    0.0000    0.0000 N   0  0  0  0  0  0  0  0  0  0  0  0
    0.7500    1.2990    0.0000 C   0  0  0  0  0  0  0  0  0  0  0  0
    1.2135    2.7256    0.0000 C   0  0  0  0  0  0  0  0  0  0  0  0
    2.6401    3.1891    0.0000 C   0  0  0  0  0  0  0  0  0  0  0  0
    2.9520    4.6564    0.0000 C   0  0  0  0  0  0  0  0  0  0  0  0
    0.0000    3.6073    0.0000 N   0  0  0  0  0  0  0  0  0  0  0  0
   -1.2135    2.7256    0.0000 N   0  0  0  0  0  0  0  0  0  0  0  0
   -2.6401    3.1891    0.0000 C   0  0  0  0  0  0  0  0  0  0  0  0
   -0.7500    1.2990    0.0000 C   0  0  0  0  0  0  0  0  0  0  0  0
   -1.5000    0.0000    0.0000 C   0  0  0  0  0  0  0  0  0  0  0  0
   -3.0000    0.0000    0.0000 O   0  0  0  0  0  0  0  0  0  0  0  0
   -0.7500   -1.2990    0.0000 N   0  0  0  0  0  0  0  0  0  0  0  0
  1  2  1  0
  2  3  1  0
  3  4  1  0
  4  5  2  0
  5  6  1  0
  6  7  2  0
  7  8  1  0
  8  9  1  0
  9 10  1  0
 10 11  1  0
 11 12  1  0
 12 13  1  0
 13 14  2  0
 14 15  1  0
 15 16  2  0
 16 17  1  0
 17 18  2  0
 17 19  1  0
 19 20  1  0
 16 21  1  0
 21 22  2  0
 12 23  1  0
 23 24  1  0
  7 25  1  0
 25 26  2  0
 26 27  1  0
 27 28  2  0
 28 29  1  0
 29 30  1  0
 30 31  1  0
 31 32  1  0
 30 33  2  0
 33 34  1  0
 34 35  1  0
 34 36  1  0
 36 37  1  0
 37 38  2  0
 37 39  1  0
 26  4  1  0
 39 27  1  0
 24  9  1  0
 36 29  2  0
 22 13  1  0
M  END
>  <molecule_chembl_id>  (616) 
CHEMBL3936651

>  <canonical_smiles>  (616) 
CCOc1ccc(OC2CCN(c3ncc(C(=O)NO)cn3)CC2)cc1-c1nc2c(CC)nn(C)c2c(=O)[nH]1

>  <pchembl_value_mean>  (616) 
6.37

>  <document_chembl_id>  (616) 
CHEMBL3860059

$$$$

     RDKit          2D

 31 34  0  0  0  0  0  0  0  0999 V2000
    3.0000    0.0000    0.0000 N   0  0  0  0  0  0  0  0  0  0  0  0
    1.5000    0.0000    0.0000 C   0  0  0  0  0  0  0  0  0  0  0  0
    0.7500   -1.2990    0.0000 C   0  0  0  0  0  0  0  0  0  0  0  0
   -0.7500   -1.2990    0.0000 C   0  0  0  0  0  0  0  0  0  0  0  0
   -1.5000    0.0000    0.0000 C   0  0  0  0  0  0  0  0  0  0  0  0
   -0.7500    1.2990    0.0000 C   0  0  0  0  0  0  0  0  0  0  0  0
    0.7500    1.2990    0.0000 C   0  0  0  0  0  0  0  0  0  0  0  0
    1.5000    2.5981    0.0000 N   0  0  0  0  0  0  0  0  0  0  0  0
    0.7500    3.8971    0.0000 C   0  0  0  0  0  0  0  0  0  0  0  0
   -0.7500    3.8971    0.0000 O   0  0  0  0  0  0  0  0  0  0  0  0
    1.5000    5.1962    0.0000 C   0  0  0  0  0  0  0  0  0  0  0  0
    3.0000    5.1962    0.0000 C   0  0  0  0  0  0  0  0  0  0  0  0
    3.7500    6.4952    0.0000 C   0  0  0  0  0  0  0  0  0  0  0  0
    3.0000    7.7942    0.0000 C   0  0  0  0  0  0  0  0  0  0  0  0
    3.7500    9.0933    0.0000 C   0  0  0  0  0  0  0  0  0  0  0  0
    5.2500    9.0933    0.0000 N   0  0  0  0  0  0  0  0  0  0  0  0
    6.0000   10.3923    0.0000 C   0  0  0  0  0  0  0  0  0  0  0  0
    7.5000   10.3923    0.0000 C   0  0  0  0  0  0  0  0  0  0  0  0
    8.3817   11.6058    0.0000 N   0  0  0  0  0  0  0  0  0  0  0  0
    9.8083   11.1423    0.0000 C   0  0  0  0  0  0  0  0  0  0  0  0
   11.0218   12.0240    0.0000 C   0  0  0  0  0  0  0  0  0  0  0  0
   12.3921   11.4139    0.0000 C   0  0  0  0  0  0  0  0  0  0  0  0
   13.6056   12.2956    0.0000 C   0  0  0  0  0  0  0  0  0  0  0  0
   13.4488   13.7873    0.0000 C   0  0  0  0  0  0  0  0  0  0  0  0
   14.6624   14.6690    0.0000 Cl  0  0  0  0  0  0  0  0  0  0  0  0
   12.0785   14.3974    0.0000 C   0  0  0  0  0  0  0  0  0  0  0  0
   10.8650   13.5158    0.0000 C   0  0  0  0  0  0  0  0  0  0  0  0
    9.8083    9.6423    0.0000 N   0  0  0  0  0  0  0  0  0  0  0  0
    8.3817    9.1788    0.0000 O   0  0  0  0  0  0  0  0  0  0  0  0
    1.5000    7.7942    0.0000 C   0  0  0  0  0  0  0  0  0  0  0  0
    0.7500    6.4952    0.0000 C   0  0  0  0  0  0  0  0  0  0  0  0
  1  2  1  0
  2  3  2  0
  3  4  1  0
  4  5  2  0
  5  6  1  0
  6  7  2  0
  7  8  1  0
  8  9  1  0
  9 10  2  0
  9 11  1  0
 11 12  2  0
 12 13  1  0
 13 14  2  0
 14 15  1  0
 15 16  1  0
 16 17  1  0
 17 18  1  0
 18 19  2  0
 19 20  1  0
 20 21  1  0
 21 22  2  0
 22 23  1  0
 23 24  2  0
 24 25  1  0
 24 26  1  0
 26 27  2  0
 20 28  2  0
 28 29  1  0
 14 30  1  0
 30 31  2  0
  7  2  1  0
 31 11  1  0
 29 18  1  0
 27 21  1  0
M  END
>  <molecule_chembl_id>  (617) 
CHEMBL3421741

>  <canonical_smiles>  (617) 
Nc1ccccc1NC(=O)c1ccc(CNCc2nc(-c3ccc(Cl)cc3)no2)cc1

>  <pchembl_value_mean>  (617) 
6.37

>  <document_chembl_id>  (617) 
CHEMBL3421568

$$$$

     RDKit          2D

 29 32  0  0  0  0  0  0  0  0999 V2000
    3.0000    0.0000    0.0000 N   0  0  0  0  0  0  0  0  0  0  0  0
    1.5000    0.0000    0.0000 C   0  0  0  0  0  0  0  0  0  0  0  0
    0.7500   -1.2990    0.0000 C   0  0  0  0  0  0  0  0  0  0  0  0
   -0.7500   -1.2990    0.0000 C   0  0  0  0  0  0  0  0  0  0  0  0
   -1.5000    0.0000    0.0000 C   0  0  0  0  0  0  0  0  0  0  0  0
   -0.7500    1.2990    0.0000 C   0  0  0  0  0  0  0  0  0  0  0  0
    0.7500    1.2990    0.0000 C   0  0  0  0  0  0  0  0  0  0  0  0
    1.5000    2.5981    0.0000 N   0  0  0  0  0  0  0  0  0  0  0  0
    0.7500    3.8971    0.0000 C   0  0  0  0  0  0  0  0  0  0  0  0
   -0.7500    3.8971    0.0000 O   0  0  0  0  0  0  0  0  0  0  0  0
    1.5000    5.1962    0.0000 C   0  0  0  0  0  0  0  0  0  0  0  0
    3.0000    5.1962    0.0000 C   0  0  0  0  0  0  0  0  0  0  0  0
    3.7500    6.4952    0.0000 C   0  0  0  0  0  0  0  0  0  0  0  0
    3.0000    7.7942    0.0000 C   0  0  0  0  0  0  0  0  0  0  0  0
    3.7500    9.0933    0.0000 C   0  0  0  0  0  0  0  0  0  0  0  0
    5.2500    9.0933    0.0000 N   0  0  0  0  0  0  0  0  0  0  0  0
    6.0000   10.3923    0.0000 C   0  0  0  0  0  0  0  0  0  0  0  0
    5.3899   11.7626    0.0000 N   0  0  0  0  0  0  0  0  0  0  0  0
    6.5046   12.7663    0.0000 C   0  0  0  0  0  0  0  0  0  0  0  0
    6.3478   14.2581    0.0000 C   0  0  0  0  0  0  0  0  0  0  0  0
    7.5613   15.1398    0.0000 C   0  0  0  0  0  0  0  0  0  0  0  0
    7.4046   16.6316    0.0000 C   0  0  0  0  0  0  0  0  0  0  0  0
    6.0342   17.2417    0.0000 C   0  0  0  0  0  0  0  0  0  0  0  0
    4.8207   16.3600    0.0000 N   0  0  0  0  0  0  0  0  0  0  0  0
    4.9775   14.8682    0.0000 C   0  0  0  0  0  0  0  0  0  0  0  0
    7.8037   12.0163    0.0000 C   0  0  0  0  0  0  0  0  0  0  0  0
    7.4918   10.5491    0.0000 O   0  0  0  0  0  0  0  0  0  0  0  0
    1.5000    7.7942    0.0000 C   0  0  0  0  0  0  0  0  0  0  0  0
    0.7500    6.4952    0.0000 C   0  0  0  0  0  0  0  0  0  0  0  0
  1  2  1  0
  2  3  2  0
  3  4  1  0
  4  5  2  0
  5  6  1  0
  6  7  2  0
  7  8  1  0
  8  9  1  0
  9 10  2  0
  9 11  1  0
 11 12  2  0
 12 13  1  0
 13 14  2  0
 14 15  1  0
 15 16  1  0
 16 17  1  0
 17 18  2  0
 18 19  1  0
 19 20  1  0
 20 21  2  0
 21 22  1  0
 22 23  2  0
 23 24  1  0
 24 25  2  0
 19 26  1  0
 26 27  1  0
 14 28  1  0
 28 29  2  0
  7  2  1  0
 29 11  1  0
 27 17  1  0
 25 20  1  0
M  END
>  <molecule_chembl_id>  (618) 
CHEMBL3605500

>  <canonical_smiles>  (618) 
Nc1ccccc1NC(=O)c1ccc(CNC2=NC(c3cccnc3)CO2)cc1

>  <pchembl_value_mean>  (618) 
6.37

>  <document_chembl_id>  (618) 
CHEMBL3603817

$$$$

     RDKit          2D

 44 48  0  0  0  0  0  0  0  0999 V2000
   -5.2500   -3.8971    0.0000 C   0  0  0  0  0  0  0  0  0  0  0  0
   -3.7500   -3.8971    0.0000 O   0  0  0  0  0  0  0  0  0  0  0  0
   -3.0000   -2.5981    0.0000 C   0  0  0  0  0  0  0  0  0  0  0  0
   -1.5000   -2.5981    0.0000 C   0  0  0  0  0  0  0  0  0  0  0  0
   -0.7500   -1.2990    0.0000 C   0  0  0  0  0  0  0  0  0  0  0  0
    0.7500   -1.2990    0.0000 C   0  0  0  0  0  0  0  0  0  0  0  0
    1.5000   -2.5981    0.0000 O   0  0  0  0  0  0  0  0  0  0  0  0
    3.0000   -2.5981    0.0000 C   0  0  0  0  0  0  0  0  0  0  0  0
    3.7500   -3.8971    0.0000 C   0  0  0  0  0  0  0  0  0  0  0  0
    5.2500   -3.8971    0.0000 C   0  0  0  0  0  0  0  0  0  0  0  0
    6.0000   -2.5981    0.0000 C   0  0  0  0  0  0  0  0  0  0  0  0
    7.5000   -2.5981    0.0000 N   0  0  0  0  0  0  0  0  0  0  0  0
    8.2500   -3.8971    0.0000 C   0  0  0  0  0  0  0  0  0  0  0  0
    7.5000   -5.1962    0.0000 O   0  0  0  0  0  0  0  0  0  0  0  0
    9.7500   -3.8971    0.0000 C   0  0  0  0  0  0  0  0  0  0  0  0
   10.0105   -2.4199    0.0000 C   0  0  0  0  0  0  0  0  0  0  0  0
    8.8614   -1.4557    0.0000 O   0  0  0  0  0  0  0  0  0  0  0  0
   11.4200   -1.9069    0.0000 N   0  0  0  0  0  0  0  0  0  0  0  0
   11.6805   -0.4297    0.0000 C   0  0  0  0  0  0  0  0  0  0  0  0
   13.0900    0.0834    0.0000 C   0  0  0  0  0  0  0  0  0  0  0  0
   13.3505    1.5606    0.0000 C   0  0  0  0  0  0  0  0  0  0  0  0
   12.2014    2.5248    0.0000 C   0  0  0  0  0  0  0  0  0  0  0  0
   12.4619    4.0020    0.0000 F   0  0  0  0  0  0  0  0  0  0  0  0
   10.7919    2.0117    0.0000 C   0  0  0  0  0  0  0  0  0  0  0  0
   10.5314    0.5345    0.0000 C   0  0  0  0  0  0  0  0  0  0  0  0
   11.1595   -4.4101    0.0000 C   0  0  0  0  0  0  0  0  0  0  0  0
   10.0105   -5.3743    0.0000 C   0  0  0  0  0  0  0  0  0  0  0  0
    5.2500   -1.2990    0.0000 C   0  0  0  0  0  0  0  0  0  0  0  0
    3.7500   -1.2990    0.0000 C   0  0  0  0  0  0  0  0  0  0  0  0
    3.0000   -0.0000    0.0000 F   0  0  0  0  0  0  0  0  0  0  0  0
    1.5000    0.0000    0.0000 C   0  0  0  0  0  0  0  0  0  0  0  0
    0.7500    1.2990    0.0000 C   0  0  0  0  0  0  0  0  0  0  0  0
   -0.7500    1.2990    0.0000 N   0  0  0  0  0  0  0  0  0  0  0  0
   -1.5000    0.0000    0.0000 C   0  0  0  0  0  0  0  0  0  0  0  0
   -3.0000    0.0000    0.0000 C   0  0  0  0  0  0  0  0  0  0  0  0
   -3.7500   -1.2990    0.0000 C   0  0  0  0  0  0  0  0  0  0  0  0
   -5.2500   -1.2990    0.0000 O   0  0  0  0  0  0  0  0  0  0  0  0
   -6.0000    0.0000    0.0000 C   0  0  0  0  0  0  0  0  0  0  0  0
   -7.5000    0.0000    0.0000 C   0  0  0  0  0  0  0  0  0  0  0  0
   -8.2500    1.2990    0.0000 C   0  0  0  0  0  0  0  0  0  0  0  0
   -9.7500    1.2990    0.0000 C   0  0  0  0  0  0  0  0  0  0  0  0
  -10.5000    0.0000    0.0000 O   0  0  0  0  0  0  0  0  0  0  0  0
  -10.5000    2.5981    0.0000 N   0  0  0  0  0  0  0  0  0  0  0  0
  -12.0000    2.5981    0.0000 O   0  0  0  0  0  0  0  0  0  0  0  0
  1  2  1  0
  2  3  1  0
  3  4  2  0
  4  5  1  0
  5  6  2  0
  6  7  1  0
  7  8  1  0
  8  9  2  0
  9 10  1  0
 10 11  2  0
 11 12  1  0
 12 13  1  0
 13 14  2  0
 13 15  1  0
 15 16  1  0
 16 17  2  0
 16 18  1  0
 18 19  1  0
 19 20  2  0
 20 21  1  0
 21 22  2  0
 22 23  1  0
 22 24  1  0
 24 25  2  0
 15 26  1  0
 26 27  1  0
 11 28  1  0
 28 29  2  0
 29 30  1  0
  6 31  1  0
 31 32  2  0
 32 33  1  0
 33 34  2  0
 34 35  1  0
 35 36  2  0
 36 37  1  0
 37 38  1  0
 38 39  1  0
 39 40  1  0
 40 41  1  0
 41 42  2  0
 41 43  1  0
 43 44  1  0
 36  3  1  0
 34  5  1  0
 29  8  1  0
 27 15  1  0
 25 19  1  0
M  END
>  <molecule_chembl_id>  (619) 
CHEMBL3981567

>  <canonical_smiles>  (619) 
COc1cc2c(Oc3ccc(NC(=O)C4(C(=O)Nc5ccc(F)cc5)CC4)cc3F)ccnc2cc1OCCCC(=O)NO

>  <pchembl_value_mean>  (619) 
6.37

>  <document_chembl_id>  (619) 
CHEMBL3886358

$$$$

     RDKit          2D

 33 36  0  0  0  0  0  0  0  0999 V2000
    3.0000    0.0000    0.0000 C   0  0  0  0  0  0  0  0  0  0  0  0
    1.5000    0.0000    0.0000 C   0  0  0  0  0  0  0  0  0  0  0  0
    0.7500   -1.2990    0.0000 C   0  0  0  0  0  0  0  0  0  0  0  0
   -0.7500   -1.2990    0.0000 C   0  0  0  0  0  0  0  0  0  0  0  0
   -1.5000    0.0000    0.0000 C   0  0  0  0  0  0  0  0  0  0  0  0
   -0.7500    1.2990    0.0000 C   0  0  0  0  0  0  0  0  0  0  0  0
    0.7500    1.2990    0.0000 C   0  0  0  0  0  0  0  0  0  0  0  0
    1.5000    2.5981    0.0000 S   0  0  0  0  0  0  0  0  0  0  0  0
    0.2010    3.3481    0.0000 O   0  0  0  0  0  0  0  0  0  0  0  0
    2.7990    1.8481    0.0000 O   0  0  0  0  0  0  0  0  0  0  0  0
    2.2500    3.8971    0.0000 N   0  0  0  0  0  0  0  0  0  0  0  0
    3.7500    3.8971    0.0000 C   0  0  0  0  0  0  0  0  0  0  0  0
    4.5000    5.1962    0.0000 C   0  0  0  0  0  0  0  0  0  0  0  0
    3.7500    6.4952    0.0000 C   0  0  0  0  0  0  0  0  0  0  0  0
    5.1595    7.0082    0.0000 N   0  0  0  0  0  0  0  0  0  0  0  0
    6.3086    6.0440    0.0000 C   0  0  0  0  0  0  0  0  0  0  0  0
    6.0481    4.5668    0.0000 N   0  0  0  0  0  0  0  0  0  0  0  0
    7.1972    3.6026    0.0000 C   0  0  0  0  0  0  0  0  0  0  0  0
    8.6067    4.1157    0.0000 C   0  0  0  0  0  0  0  0  0  0  0  0
    9.7558    3.1515    0.0000 C   0  0  0  0  0  0  0  0  0  0  0  0
   11.1653    3.6645    0.0000 O   0  0  0  0  0  0  0  0  0  0  0  0
    9.4953    1.6743    0.0000 N   0  0  0  0  0  0  0  0  0  0  0  0
   10.6444    0.7101    0.0000 O   0  0  0  0  0  0  0  0  0  0  0  0
    8.8672    5.5929    0.0000 C   0  0  0  0  0  0  0  0  0  0  0  0
    7.7181    6.5571    0.0000 N   0  0  0  0  0  0  0  0  0  0  0  0
    3.4895    7.9724    0.0000 C   0  0  0  0  0  0  0  0  0  0  0  0
    4.6386    8.9366    0.0000 C   0  0  0  0  0  0  0  0  0  0  0  0
    4.3781   10.4138    0.0000 C   0  0  0  0  0  0  0  0  0  0  0  0
    2.9686   10.9268    0.0000 C   0  0  0  0  0  0  0  0  0  0  0  0
    1.8195    9.9626    0.0000 C   0  0  0  0  0  0  0  0  0  0  0  0
    2.0800    8.4854    0.0000 C   0  0  0  0  0  0  0  0  0  0  0  0
    2.2500    6.4952    0.0000 C   0  0  0  0  0  0  0  0  0  0  0  0
    1.5000    5.1962    0.0000 C   0  0  0  0  0  0  0  0  0  0  0  0
  1  2  1  0
  2  3  2  0
  3  4  1  0
  4  5  2  0
  5  6  1  0
  6  7  2  0
  7  8  1  0
  8  9  2  0
  8 10  2  0
  8 11  1  0
 11 12  1  0
 12 13  1  0
 13 14  1  0
 14 15  1  0
 15 16  1  0
 16 17  2  0
 17 18  1  0
 18 19  2  0
 19 20  1  0
 20 21  2  0
 20 22  1  0
 22 23  1  0
 19 24  1  0
 24 25  2  0
 14 26  1  0
 26 27  2  0
 27 28  1  0
 28 29  2  0
 29 30  1  0
 30 31  2  0
 14 32  1  0
 32 33  1  0
  7  2  1  0
 33 11  1  0
 25 16  1  0
 31 26  1  0
M  END
>  <molecule_chembl_id>  (620) 
CHEMBL3967312

>  <canonical_smiles>  (620) 
Cc1ccccc1S(=O)(=O)N1CCC(Nc2ncc(C(=O)NO)cn2)(c2ccccc2)CC1

>  <pchembl_value_mean>  (620) 
6.37

>  <document_chembl_id>  (620) 
CHEMBL3886590

$$$$

     RDKit          2D

 27 30  0  0  0  0  0  0  0  0999 V2000
    3.0000    0.0000    0.0000 N   0  0  0  0  0  0  0  0  0  0  0  0
    1.5000    0.0000    0.0000 C   0  0  0  0  0  0  0  0  0  0  0  0
    0.7500   -1.2990    0.0000 C   0  0  0  0  0  0  0  0  0  0  0  0
   -0.7500   -1.2990    0.0000 C   0  0  0  0  0  0  0  0  0  0  0  0
   -1.5000    0.0000    0.0000 C   0  0  0  0  0  0  0  0  0  0  0  0
   -0.7500    1.2990    0.0000 C   0  0  0  0  0  0  0  0  0  0  0  0
    0.7500    1.2990    0.0000 C   0  0  0  0  0  0  0  0  0  0  0  0
    1.5000    2.5981    0.0000 N   0  0  0  0  0  0  0  0  0  0  0  0
    0.7500    3.8971    0.0000 C   0  0  0  0  0  0  0  0  0  0  0  0
   -0.7500    3.8971    0.0000 O   0  0  0  0  0  0  0  0  0  0  0  0
    1.5000    5.1962    0.0000 C   0  0  0  0  0  0  0  0  0  0  0  0
    3.0000    5.1962    0.0000 C   0  0  0  0  0  0  0  0  0  0  0  0
    3.7500    6.4952    0.0000 C   0  0  0  0  0  0  0  0  0  0  0  0
    3.0000    7.7942    0.0000 C   0  0  0  0  0  0  0  0  0  0  0  0
    3.7500    9.0933    0.0000 C   0  0  0  0  0  0  0  0  0  0  0  0
    5.2500    9.0933    0.0000 N   0  0  0  0  0  0  0  0  0  0  0  0
    6.0000   10.3923    0.0000 C   0  0  0  0  0  0  0  0  0  0  0  0
    6.0000   11.8923    0.0000 C   0  0  0  0  0  0  0  0  0  0  0  0
    7.2990   11.1423    0.0000 C   0  0  0  0  0  0  0  0  0  0  0  0
    8.7990   11.1423    0.0000 C   0  0  0  0  0  0  0  0  0  0  0  0
    9.5490    9.8433    0.0000 C   0  0  0  0  0  0  0  0  0  0  0  0
   11.0490    9.8433    0.0000 C   0  0  0  0  0  0  0  0  0  0  0  0
   11.7990   11.1423    0.0000 C   0  0  0  0  0  0  0  0  0  0  0  0
   11.0490   12.4413    0.0000 C   0  0  0  0  0  0  0  0  0  0  0  0
    9.5490   12.4413    0.0000 C   0  0  0  0  0  0  0  0  0  0  0  0
    1.5000    7.7942    0.0000 C   0  0  0  0  0  0  0  0  0  0  0  0
    0.7500    6.4952    0.0000 C   0  0  0  0  0  0  0  0  0  0  0  0
  1  2  1  0
  2  3  2  0
  3  4  1  0
  4  5  2  0
  5  6  1  0
  6  7  2  0
  7  8  1  0
  8  9  1  0
  9 10  2  0
  9 11  1  0
 11 12  2  0
 12 13  1  0
 13 14  2  0
 14 15  1  0
 15 16  1  0
 16 17  1  0
 17 18  1  0
 18 19  1  0
 19 20  1  0
 20 21  2  0
 21 22  1  0
 22 23  2  0
 23 24  1  0
 24 25  2  0
 14 26  1  0
 26 27  2  0
  7  2  1  0
 27 11  1  0
 19 17  1  0
 25 20  1  0
M  END
>  <molecule_chembl_id>  (621) 
CHEMBL4162637

>  <canonical_smiles>  (621) 
Nc1ccccc1NC(=O)c1ccc(CNC2CC2c2ccccc2)cc1

>  <pchembl_value_mean>  (621) 
6.38

>  <document_chembl_id>  (621) 
CHEMBL4130471

$$$$

     RDKit          2D

 28 30  0  0  0  0  0  0  0  0999 V2000
   -7.5000    2.5981    0.0000 C   0  0  0  0  0  0  0  0  0  0  0  0
   -6.0000    2.5981    0.0000 C   0  0  0  0  0  0  0  0  0  0  0  0
   -5.2500    1.2990    0.0000 C   0  0  0  0  0  0  0  0  0  0  0  0
   -3.7500    1.2990    0.0000 N   0  0  0  0  0  0  0  0  0  0  0  0
   -3.0000    0.0000    0.0000 C   0  0  0  0  0  0  0  0  0  0  0  0
   -3.7500   -1.2990    0.0000 C   0  0  0  0  0  0  0  0  0  0  0  0
   -3.0000   -2.5981    0.0000 C   0  0  0  0  0  0  0  0  0  0  0  0
   -1.5000   -2.5981    0.0000 C   0  0  0  0  0  0  0  0  0  0  0  0
   -0.7500   -1.2990    0.0000 C   0  0  0  0  0  0  0  0  0  0  0  0
    0.7500   -1.2990    0.0000 C   0  0  0  0  0  0  0  0  0  0  0  0
    1.5000    0.0000    0.0000 C   0  0  0  0  0  0  0  0  0  0  0  0
    0.7500    1.2990    0.0000 C   0  0  0  0  0  0  0  0  0  0  0  0
   -0.7500    1.2990    0.0000 C   0  0  0  0  0  0  0  0  0  0  0  0
   -1.5000    0.0000    0.0000 C   0  0  0  0  0  0  0  0  0  0  0  0
    1.5000   -2.5981    0.0000 C   0  0  0  0  0  0  0  0  0  0  0  0
    3.0000   -2.5981    0.0000 O   0  0  0  0  0  0  0  0  0  0  0  0
    0.7500   -3.8971    0.0000 N   0  0  0  0  0  0  0  0  0  0  0  0
    1.5000   -5.1962    0.0000 C   0  0  0  0  0  0  0  0  0  0  0  0
    0.7500   -6.4952    0.0000 C   0  0  0  0  0  0  0  0  0  0  0  0
    1.5000   -7.7942    0.0000 C   0  0  0  0  0  0  0  0  0  0  0  0
    0.7500   -9.0933    0.0000 C   0  0  0  0  0  0  0  0  0  0  0  0
    1.5000  -10.3923    0.0000 C   0  0  0  0  0  0  0  0  0  0  0  0
    0.7500  -11.6913    0.0000 C   0  0  0  0  0  0  0  0  0  0  0  0
   -0.7500  -11.6913    0.0000 O   0  0  0  0  0  0  0  0  0  0  0  0
    1.5000  -12.9904    0.0000 N   0  0  0  0  0  0  0  0  0  0  0  0
    0.7500  -14.2894    0.0000 O   0  0  0  0  0  0  0  0  0  0  0  0
   -0.7500   -3.8971    0.0000 C   0  0  0  0  0  0  0  0  0  0  0  0
   -1.5000   -5.1962    0.0000 O   0  0  0  0  0  0  0  0  0  0  0  0
  1  2  1  0
  2  3  1  0
  3  4  1  0
  4  5  1  0
  5  6  2  0
  6  7  1  0
  7  8  2  0
  8  9  1  0
  9 10  2  0
 10 11  1  0
 11 12  2  0
 12 13  1  0
 13 14  2  0
 10 15  1  0
 15 16  2  0
 15 17  1  0
 17 18  1  0
 18 19  1  0
 19 20  1  0
 20 21  1  0
 21 22  1  0
 22 23  1  0
 23 24  2  0
 23 25  1  0
 25 26  1  0
 17 27  1  0
 27 28  2  0
 14  5  1  0
 27  8  1  0
 14  9  1  0
M  END
>  <molecule_chembl_id>  (622) 
CHEMBL4475116

>  <canonical_smiles>  (622) 
CCCNc1ccc2c3c(cccc13)C(=O)N(CCCCCC(=O)NO)C2=O

>  <pchembl_value_mean>  (622) 
6.38

>  <document_chembl_id>  (622) 
CHEMBL4325904

$$$$

     RDKit          2D

 36 39  0  0  0  0  0  0  0  0999 V2000
    1.9979  -12.6093    0.0000 C   0  0  0  0  0  0  0  0  0  0  0  0
    2.3097  -11.1421    0.0000 O   0  0  0  0  0  0  0  0  0  0  0  0
    1.1950  -10.1384    0.0000 C   0  0  0  0  0  0  0  0  0  0  0  0
   -0.2316  -10.6019    0.0000 C   0  0  0  0  0  0  0  0  0  0  0  0
   -1.3463   -9.5982    0.0000 C   0  0  0  0  0  0  0  0  0  0  0  0
   -1.0344   -8.1310    0.0000 C   0  0  0  0  0  0  0  0  0  0  0  0
   -2.1491   -7.1273    0.0000 C   0  0  0  0  0  0  0  0  0  0  0  0
   -3.5757   -7.5908    0.0000 O   0  0  0  0  0  0  0  0  0  0  0  0
   -1.8373   -5.6601    0.0000 N   0  0  0  0  0  0  0  0  0  0  0  0
   -2.9520   -4.6564    0.0000 C   0  0  0  0  0  0  0  0  0  0  0  0
   -4.3786   -5.1199    0.0000 C   0  0  0  0  0  0  0  0  0  0  0  0
   -4.6904   -6.5871    0.0000 O   0  0  0  0  0  0  0  0  0  0  0  0
   -6.1170   -7.0506    0.0000 C   0  0  0  0  0  0  0  0  0  0  0  0
   -7.2317   -6.0469    0.0000 C   0  0  0  0  0  0  0  0  0  0  0  0
   -8.6583   -6.5105    0.0000 C   0  0  0  0  0  0  0  0  0  0  0  0
   -8.9702   -7.9777    0.0000 C   0  0  0  0  0  0  0  0  0  0  0  0
  -10.3968   -8.4412    0.0000 C   0  0  0  0  0  0  0  0  0  0  0  0
  -11.5115   -7.4375    0.0000 C   0  0  0  0  0  0  0  0  0  0  0  0
  -12.9381   -7.9010    0.0000 C   0  0  0  0  0  0  0  0  0  0  0  0
  -13.2499   -9.3683    0.0000 O   0  0  0  0  0  0  0  0  0  0  0  0
  -14.0528   -6.8974    0.0000 N   0  0  0  0  0  0  0  0  0  0  0  0
  -15.4794   -7.3609    0.0000 O   0  0  0  0  0  0  0  0  0  0  0  0
   -7.8555   -8.9814    0.0000 C   0  0  0  0  0  0  0  0  0  0  0  0
   -6.4289   -8.5179    0.0000 C   0  0  0  0  0  0  0  0  0  0  0  0
   -2.6401   -3.1891    0.0000 C   0  0  0  0  0  0  0  0  0  0  0  0
   -1.2135   -2.7256    0.0000 C   0  0  0  0  0  0  0  0  0  0  0  0
   -0.0000   -3.6073    0.0000 C   0  0  0  0  0  0  0  0  0  0  0  0
    1.2135   -2.7256    0.0000 N   0  0  0  0  0  0  0  0  0  0  0  0
    0.7500   -1.2990    0.0000 C   0  0  0  0  0  0  0  0  0  0  0  0
    1.5000    0.0000    0.0000 C   0  0  0  0  0  0  0  0  0  0  0  0
    0.7500    1.2990    0.0000 C   0  0  0  0  0  0  0  0  0  0  0  0
   -0.7500    1.2990    0.0000 C   0  0  0  0  0  0  0  0  0  0  0  0
   -1.5000    0.0000    0.0000 C   0  0  0  0  0  0  0  0  0  0  0  0
   -0.7500   -1.2990    0.0000 C   0  0  0  0  0  0  0  0  0  0  0  0
    0.3922   -7.6675    0.0000 C   0  0  0  0  0  0  0  0  0  0  0  0
    1.5069   -8.6712    0.0000 C   0  0  0  0  0  0  0  0  0  0  0  0
  1  2  1  0
  2  3  1  0
  3  4  2  0
  4  5  1  0
  5  6  2  0
  6  7  1  0
  7  8  2  0
  7  9  1  0
  9 10  1  0
 10 11  1  0
 11 12  1  0
 12 13  1  0
 13 14  2  0
 14 15  1  0
 15 16  2  0
 16 17  1  0
 17 18  2  3
 18 19  1  0
 19 20  2  0
 19 21  1  0
 21 22  1  0
 16 23  1  0
 23 24  2  0
 10 25  1  0
 25 26  1  0
 26 27  2  0
 27 28  1  0
 28 29  1  0
 29 30  2  0
 30 31  1  0
 31 32  2  0
 32 33  1  0
 33 34  2  0
  6 35  1  0
 35 36  2  0
 36  3  1  0
 24 13  1  0
 34 26  1  0
 34 29  1  0
M  END
>  <molecule_chembl_id>  (623) 
CHEMBL3233705

>  <canonical_smiles>  (623) 
COc1ccc(C(=O)NC(COc2ccc(C=CC(=O)NO)cc2)Cc2c[nH]c3ccccc23)cc1

>  <pchembl_value_mean>  (623) 
6.38

>  <document_chembl_id>  (623) 
CHEMBL3232921

$$$$

     RDKit          2D

 32 33  0  0  0  0  0  0  0  0999 V2000
    7.5000   -2.5981    0.0000 C   0  0  0  0  0  0  0  0  0  0  0  0
    6.7500   -1.2990    0.0000 C   0  0  0  0  0  0  0  0  0  0  0  0
    5.2500   -1.2990    0.0000 C   0  0  0  0  0  0  0  0  0  0  0  0
    5.2500   -2.7990    0.0000 C   0  0  0  0  0  0  0  0  0  0  0  0
    5.2500    0.2010    0.0000 C   0  0  0  0  0  0  0  0  0  0  0  0
    3.7500   -1.2990    0.0000 C   0  0  0  0  0  0  0  0  0  0  0  0
    3.0000   -2.5981    0.0000 O   0  0  0  0  0  0  0  0  0  0  0  0
    3.0000    0.0000    0.0000 O   0  0  0  0  0  0  0  0  0  0  0  0
    1.5000    0.0000    0.0000 C   0  0  0  0  0  0  0  0  0  0  0  0
    0.7500   -1.2990    0.0000 C   0  0  0  0  0  0  0  0  0  0  0  0
   -0.7500   -1.2990    0.0000 C   0  0  0  0  0  0  0  0  0  0  0  0
   -1.5000   -2.5981    0.0000 C   0  0  0  0  0  0  0  0  0  0  0  0
   -1.5000    0.0000    0.0000 C   0  0  0  0  0  0  0  0  0  0  0  0
   -0.7500    1.2990    0.0000 C   0  0  0  0  0  0  0  0  0  0  0  0
   -1.5000    2.5981    0.0000 C   0  0  0  0  0  0  0  0  0  0  0  0
   -0.7500    3.8971    0.0000 C   0  0  0  0  0  0  0  0  0  0  0  0
    0.7500    3.8971    0.0000 C   0  0  0  0  0  0  0  0  0  0  0  0
    1.5000    5.1962    0.0000 C   0  0  0  0  0  0  0  0  0  0  0  0
    1.5000    2.5981    0.0000 C   0  0  0  0  0  0  0  0  0  0  0  0
    3.0000    2.5981    0.0000 C   0  0  0  0  0  0  0  0  0  0  0  0
    3.7500    1.2990    0.0000 C   0  0  0  0  0  0  0  0  0  0  0  0
    5.2500    1.2990    0.0000 C   0  0  0  0  0  0  0  0  0  0  0  0
    6.0000    2.5981    0.0000 O   0  0  0  0  0  0  0  0  0  0  0  0
    6.0000    0.0000    0.0000 C   0  0  0  0  0  0  0  0  0  0  0  0
    7.5000    0.0000    0.0000 C   0  0  0  0  0  0  0  0  0  0  0  0
    8.2500    1.2990    0.0000 O   0  0  0  0  0  0  0  0  0  0  0  0
    8.2500   -1.2990    0.0000 C   0  0  0  0  0  0  0  0  0  0  0  0
    9.7500   -1.2990    0.0000 C   0  0  0  0  0  0  0  0  0  0  0  0
   10.5000    0.0000    0.0000 O   0  0  0  0  0  0  0  0  0  0  0  0
   10.5000   -2.5981    0.0000 N   0  0  0  0  0  0  0  0  0  0  0  0
   12.0000   -2.5981    0.0000 O   0  0  0  0  0  0  0  0  0  0  0  0
    0.7500    1.2990    0.0000 C   0  0  0  0  0  0  0  0  0  0  0  0
  1  2  1  0
  2  3  1  0
  3  4  1  0
  3  5  1  0
  3  6  1  0
  6  7  2  0
  6  8  1  0
  8  9  1  0
  9 10  1  0
 10 11  1  0
 11 12  1  0
 11 13  1  0
 13 14  2  0
 14 15  1  0
 15 16  2  0
 16 17  1  0
 17 18  1  0
 17 19  1  0
 19 20  1  0
 20 21  1  0
 21 22  1  0
 22 23  1  0
 22 24  1  0
 24 25  1  0
 25 26  1  0
 25 27  1  0
 27 28  1  0
 28 29  2  0
 28 30  1  0
 30 31  1  0
 19 32  1  0
 32  9  1  0
 32 14  1  0
M  END
>  <molecule_chembl_id>  (624) 
CHEMBL2347007

>  <canonical_smiles>  (624) 
CCC(C)(C)C(=O)OC1CC(C)C=C2C=CC(C)C(CCC(O)CC(O)CC(=O)NO)C21

>  <pchembl_value_mean>  (624) 
6.38

>  <document_chembl_id>  (624) 
CHEMBL2346500

$$$$

     RDKit          2D

 59 64  0  0  0  0  0  0  0  0999 V2000
    5.9157   -6.1668    0.0000 C   0  0  0  0  0  0  0  0  0  0  0  0
    4.4738   -6.5802    0.0000 C   0  0  0  0  0  0  0  0  0  0  0  0
    4.1110   -8.0357    0.0000 C   0  0  0  0  0  0  0  0  0  0  0  0
    5.6073   -8.1403    0.0000 O   0  0  0  0  0  0  0  0  0  0  0  0
    4.2677   -9.5275    0.0000 C   0  0  0  0  0  0  0  0  0  0  0  0
    5.6381  -10.1376    0.0000 O   0  0  0  0  0  0  0  0  0  0  0  0
    3.0542  -10.4092    0.0000 O   0  0  0  0  0  0  0  0  0  0  0  0
    1.6839   -9.7990    0.0000 C   0  0  0  0  0  0  0  0  0  0  0  0
    1.5271   -8.3073    0.0000 C   0  0  0  0  0  0  0  0  0  0  0  0
    2.7406   -7.4256    0.0000 C   0  0  0  0  0  0  0  0  0  0  0  0
    2.5838   -5.9338    0.0000 C   0  0  0  0  0  0  0  0  0  0  0  0
    1.2135   -5.3237    0.0000 C   0  0  0  0  0  0  0  0  0  0  0  0
   -0.0000   -6.2054    0.0000 N   0  0  0  0  0  0  0  0  0  0  0  0
    0.1568   -7.6972    0.0000 C   0  0  0  0  0  0  0  0  0  0  0  0
   -1.0567   -8.5788    0.0000 O   0  0  0  0  0  0  0  0  0  0  0  0
   -1.2135   -5.3237    0.0000 C   0  0  0  0  0  0  0  0  0  0  0  0
   -0.7500   -3.8971    0.0000 C   0  0  0  0  0  0  0  0  0  0  0  0
    0.7500   -3.8971    0.0000 C   0  0  0  0  0  0  0  0  0  0  0  0
    1.5000   -2.5981    0.0000 N   0  0  0  0  0  0  0  0  0  0  0  0
    0.7500   -1.2990    0.0000 C   0  0  0  0  0  0  0  0  0  0  0  0
    1.5000    0.0000    0.0000 C   0  0  0  0  0  0  0  0  0  0  0  0
    0.7500    1.2990    0.0000 C   0  0  0  0  0  0  0  0  0  0  0  0
   -0.7500    1.2990    0.0000 C   0  0  0  0  0  0  0  0  0  0  0  0
   -1.5000    2.5981    0.0000 O   0  0  0  0  0  0  0  0  0  0  0  0
   -1.5000    0.0000    0.0000 C   0  0  0  0  0  0  0  0  0  0  0  0
   -0.7500   -1.2990    0.0000 C   0  0  0  0  0  0  0  0  0  0  0  0
   -1.5000   -2.5981    0.0000 C   0  0  0  0  0  0  0  0  0  0  0  0
   -3.0000   -2.5981    0.0000 C   0  0  0  0  0  0  0  0  0  0  0  0
   -3.7500   -1.2990    0.0000 N   0  0  0  0  0  0  0  0  0  0  0  0
   -5.2500   -1.2990    0.0000 O   0  0  0  0  0  0  0  0  0  0  0  0
   -6.0000    0.0000    0.0000 C   0  0  0  0  0  0  0  0  0  0  0  0
   -7.5000    0.0000    0.0000 C   0  0  0  0  0  0  0  0  0  0  0  0
   -8.2500    1.2990    0.0000 C   0  0  0  0  0  0  0  0  0  0  0  0
   -9.7500    1.2990    0.0000 C   0  0  0  0  0  0  0  0  0  0  0  0
  -10.5000    2.5981    0.0000 C   0  0  0  0  0  0  0  0  0  0  0  0
  -12.0000    2.5981    0.0000 C   0  0  0  0  0  0  0  0  0  0  0  0
  -12.7500    1.2990    0.0000 O   0  0  0  0  0  0  0  0  0  0  0  0
  -12.7500    3.8971    0.0000 N   0  0  0  0  0  0  0  0  0  0  0  0
  -14.2500    3.8971    0.0000 C   0  0  0  0  0  0  0  0  0  0  0  0
  -15.0000    5.1962    0.0000 C   0  0  0  0  0  0  0  0  0  0  0  0
  -16.5000    5.1962    0.0000 S   0  0  0  0  0  0  0  0  0  0  0  0
  -17.2500    6.4952    0.0000 S   0  0  0  0  0  0  0  0  0  0  0  0
  -18.7500    6.4952    0.0000 C   0  0  0  0  0  0  0  0  0  0  0  0
  -19.5000    7.7942    0.0000 C   0  0  0  0  0  0  0  0  0  0  0  0
  -21.0000    7.7942    0.0000 N   0  0  0  0  0  0  0  0  0  0  0  0
  -21.7500    9.0933    0.0000 C   0  0  0  0  0  0  0  0  0  0  0  0
  -21.0000   10.3923    0.0000 O   0  0  0  0  0  0  0  0  0  0  0  0
  -23.2500    9.0933    0.0000 C   0  0  0  0  0  0  0  0  0  0  0  0
  -24.0000   10.3923    0.0000 C   0  0  0  0  0  0  0  0  0  0  0  0
  -25.5000   10.3923    0.0000 C   0  0  0  0  0  0  0  0  0  0  0  0
  -26.2500   11.6913    0.0000 C   0  0  0  0  0  0  0  0  0  0  0  0
  -27.7500   11.6913    0.0000 C   0  0  0  0  0  0  0  0  0  0  0  0
  -28.5000   10.3923    0.0000 C   0  0  0  0  0  0  0  0  0  0  0  0
  -30.0000   10.3923    0.0000 O   0  0  0  0  0  0  0  0  0  0  0  0
  -27.7500    9.0933    0.0000 C   0  0  0  0  0  0  0  0  0  0  0  0
  -28.5000    7.7942    0.0000 Br  0  0  0  0  0  0  0  0  0  0  0  0
  -26.2500    9.0933    0.0000 C   0  0  0  0  0  0  0  0  0  0  0  0
  -24.0000    7.7942    0.0000 N   0  0  0  0  0  0  0  0  0  0  0  0
  -25.5000    7.7942    0.0000 O   0  0  0  0  0  0  0  0  0  0  0  0
  1  2  1  0
  2  3  1  0
  3  4  1  0
  3  5  1  0
  5  6  2  0
  5  7  1  0
  7  8  1  0
  8  9  1  0
  9 10  2  0
 10 11  1  0
 11 12  2  0
 12 13  1  0
 13 14  1  0
 14 15  2  0
 13 16  1  0
 16 17  1  0
 17 18  2  0
 18 19  1  0
 19 20  2  0
 20 21  1  0
 21 22  2  0
 22 23  1  0
 23 24  1  0
 23 25  2  0
 25 26  1  0
 26 27  2  0
 27 28  1  0
 28 29  2  3
 29 30  1  0
 30 31  1  0
 31 32  1  0
 32 33  1  0
 33 34  1  0
 34 35  1  0
 35 36  1  0
 36 37  2  0
 36 38  1  0
 38 39  1  0
 39 40  1  0
 40 41  1  0
 41 42  1  0
 42 43  1  0
 43 44  1  0
 44 45  1  0
 45 46  1  0
 46 47  2  0
 46 48  1  0
 48 49  1  0
 49 50  1  0
 50 51  2  0
 51 52  1  0
 52 53  2  0
 53 54  1  0
 53 55  1  0
 55 56  1  0
 55 57  2  0
 48 58  2  3
 58 59  1  0
 10  3  1  0
 18 12  1  0
 26 20  1  0
 57 50  1  0
 14  9  1  0
 27 17  1  0
M  END
>  <molecule_chembl_id>  (625) 
CHEMBL4280303

>  <canonical_smiles>  (625) 
CCC1(O)C(=O)OCc2c1cc1n(c2=O)Cc2c-1nc1ccc(O)cc1c2C=NOCCCCCC(=O)NCCSSCCNC(=O)C(Cc1ccc(O)c(Br)c1)=NO

>  <pchembl_value_mean>  (625) 
6.39

>  <document_chembl_id>  (625) 
CHEMBL4251569

$$$$

     RDKit          2D

 39 42  0  0  0  0  0  0  0  0999 V2000
   -4.6904   -6.5871    0.0000 C   0  0  0  0  0  0  0  0  0  0  0  0
   -4.3786   -5.1199    0.0000 O   0  0  0  0  0  0  0  0  0  0  0  0
   -2.9520   -4.6564    0.0000 C   0  0  0  0  0  0  0  0  0  0  0  0
   -1.8373   -5.6601    0.0000 O   0  0  0  0  0  0  0  0  0  0  0  0
   -2.6401   -3.1891    0.0000 C   0  0  0  0  0  0  0  0  0  0  0  0
   -1.2135   -2.7256    0.0000 C   0  0  0  0  0  0  0  0  0  0  0  0
   -0.0000   -3.6073    0.0000 C   0  0  0  0  0  0  0  0  0  0  0  0
   -0.0000   -5.1073    0.0000 C   0  0  0  0  0  0  0  0  0  0  0  0
    1.2135   -2.7256    0.0000 N   0  0  0  0  0  0  0  0  0  0  0  0
    2.6401   -3.1891    0.0000 C   0  0  0  0  0  0  0  0  0  0  0  0
    2.9520   -4.6564    0.0000 C   0  0  0  0  0  0  0  0  0  0  0  0
    1.8373   -5.6601    0.0000 C   0  0  0  0  0  0  0  0  0  0  0  0
    2.1491   -7.1273    0.0000 C   0  0  0  0  0  0  0  0  0  0  0  0
    3.5757   -7.5908    0.0000 C   0  0  0  0  0  0  0  0  0  0  0  0
    3.8876   -9.0580    0.0000 C   0  0  0  0  0  0  0  0  0  0  0  0
    5.2579   -9.6681    0.0000 C   0  0  0  0  0  0  0  0  0  0  0  0
    5.1011  -11.1599    0.0000 N   0  0  0  0  0  0  0  0  0  0  0  0
    6.2158  -12.1636    0.0000 C   0  0  0  0  0  0  0  0  0  0  0  0
    5.9040  -13.6308    0.0000 C   0  0  0  0  0  0  0  0  0  0  0  0
    7.0187  -14.6345    0.0000 C   0  0  0  0  0  0  0  0  0  0  0  0
    6.7068  -16.1018    0.0000 C   0  0  0  0  0  0  0  0  0  0  0  0
    7.8215  -17.1055    0.0000 C   0  0  0  0  0  0  0  0  0  0  0  0
    7.5097  -18.5727    0.0000 C   0  0  0  0  0  0  0  0  0  0  0  0
    8.6244  -19.5764    0.0000 C   0  0  0  0  0  0  0  0  0  0  0  0
   10.0510  -19.1128    0.0000 O   0  0  0  0  0  0  0  0  0  0  0  0
    8.3125  -21.0436    0.0000 N   0  0  0  0  0  0  0  0  0  0  0  0
    9.4272  -22.0473    0.0000 O   0  0  0  0  0  0  0  0  0  0  0  0
    3.6339  -11.4718    0.0000 N   0  0  0  0  0  0  0  0  0  0  0  0
    2.8839  -10.1728    0.0000 N   0  0  0  0  0  0  0  0  0  0  0  0
    4.6904   -6.5871    0.0000 C   0  0  0  0  0  0  0  0  0  0  0  0
    4.3786   -5.1199    0.0000 C   0  0  0  0  0  0  0  0  0  0  0  0
    0.7500   -1.2990    0.0000 C   0  0  0  0  0  0  0  0  0  0  0  0
    1.5000    0.0000    0.0000 C   0  0  0  0  0  0  0  0  0  0  0  0
    0.7500    1.2990    0.0000 C   0  0  0  0  0  0  0  0  0  0  0  0
   -0.7500    1.2990    0.0000 C   0  0  0  0  0  0  0  0  0  0  0  0
   -1.5000    2.5981    0.0000 O   0  0  0  0  0  0  0  0  0  0  0  0
   -0.7500    3.8971    0.0000 C   0  0  0  0  0  0  0  0  0  0  0  0
   -1.5000    0.0000    0.0000 C   0  0  0  0  0  0  0  0  0  0  0  0
   -0.7500   -1.2990    0.0000 C   0  0  0  0  0  0  0  0  0  0  0  0
  1  2  1  0
  2  3  1  0
  3  4  2  0
  3  5  1  0
  5  6  1  0
  6  7  2  0
  7  8  1  0
  7  9  1  0
  9 10  1  0
 10 11  1  0
 11 12  2  0
 12 13  1  0
 13 14  2  0
 14 15  1  0
 15 16  2  0
 16 17  1  0
 17 18  1  0
 18 19  1  0
 19 20  1  0
 20 21  1  0
 21 22  1  0
 22 23  1  0
 23 24  1  0
 24 25  2  0
 24 26  1  0
 26 27  1  0
 17 28  1  0
 28 29  2  0
 14 30  1  0
 30 31  2  0
  9 32  1  0
 32 33  2  0
 33 34  1  0
 34 35  2  0
 35 36  1  0
 36 37  1  0
 35 38  1  0
 38 39  2  0
 39  6  1  0
 31 11  1  0
 39 32  1  0
 29 15  1  0
M  END
>  <molecule_chembl_id>  (626) 
CHEMBL3885174

>  <canonical_smiles>  (626) 
COC(=O)Cc1c(C)n(Cc2ccc(-c3cn(CCCCCCC(=O)NO)nn3)cc2)c2ccc(OC)cc12

>  <pchembl_value_mean>  (626) 
6.39

>  <document_chembl_id>  (626) 
CHEMBL3875218

$$$$

     RDKit          2D

 37 41  0  0  0  0  0  0  0  0999 V2000
    3.7500   -1.2990    0.0000 C   0  0  0  0  0  0  0  0  0  0  0  0
    3.0000    0.0000    0.0000 O   0  0  0  0  0  0  0  0  0  0  0  0
    1.5000    0.0000    0.0000 C   0  0  0  0  0  0  0  0  0  0  0  0
    0.7500   -1.2990    0.0000 C   0  0  0  0  0  0  0  0  0  0  0  0
   -0.7500   -1.2990    0.0000 C   0  0  0  0  0  0  0  0  0  0  0  0
   -1.5000   -2.5981    0.0000 N   0  0  0  0  0  0  0  0  0  0  0  0
   -3.0000   -2.5981    0.0000 C   0  0  0  0  0  0  0  0  0  0  0  0
   -3.7500   -3.8971    0.0000 C   0  0  0  0  0  0  0  0  0  0  0  0
   -3.1399   -5.2674    0.0000 C   0  0  0  0  0  0  0  0  0  0  0  0
   -4.2546   -6.2711    0.0000 C   0  0  0  0  0  0  0  0  0  0  0  0
   -5.5537   -5.5211    0.0000 C   0  0  0  0  0  0  0  0  0  0  0  0
   -6.9240   -6.1312    0.0000 C   0  0  0  0  0  0  0  0  0  0  0  0
   -5.2418   -4.0539    0.0000 O   0  0  0  0  0  0  0  0  0  0  0  0
   -3.7500   -1.2990    0.0000 C   0  0  0  0  0  0  0  0  0  0  0  0
   -3.0000    0.0000    0.0000 C   0  0  0  0  0  0  0  0  0  0  0  0
   -3.7500    1.2990    0.0000 N   0  0  0  0  0  0  0  0  0  0  0  0
   -5.2500    1.2990    0.0000 C   0  0  0  0  0  0  0  0  0  0  0  0
   -6.0000    2.5981    0.0000 C   0  0  0  0  0  0  0  0  0  0  0  0
   -7.5000    2.5981    0.0000 C   0  0  0  0  0  0  0  0  0  0  0  0
   -8.2500    1.2990    0.0000 N   0  0  0  0  0  0  0  0  0  0  0  0
   -9.7500    1.2990    0.0000 C   0  0  0  0  0  0  0  0  0  0  0  0
  -10.5000    2.5981    0.0000 N   0  0  0  0  0  0  0  0  0  0  0  0
  -12.0000    2.5981    0.0000 C   0  0  0  0  0  0  0  0  0  0  0  0
  -12.7500    1.2990    0.0000 C   0  0  0  0  0  0  0  0  0  0  0  0
  -14.2500    1.2990    0.0000 C   0  0  0  0  0  0  0  0  0  0  0  0
  -15.0000    0.0000    0.0000 O   0  0  0  0  0  0  0  0  0  0  0  0
  -15.0000    2.5981    0.0000 N   0  0  0  0  0  0  0  0  0  0  0  0
  -16.5000    2.5981    0.0000 O   0  0  0  0  0  0  0  0  0  0  0  0
  -12.0000    0.0000    0.0000 C   0  0  0  0  0  0  0  0  0  0  0  0
  -10.5000    0.0000    0.0000 N   0  0  0  0  0  0  0  0  0  0  0  0
   -7.5000    0.0000    0.0000 C   0  0  0  0  0  0  0  0  0  0  0  0
   -6.0000    0.0000    0.0000 C   0  0  0  0  0  0  0  0  0  0  0  0
   -1.5000    0.0000    0.0000 C   0  0  0  0  0  0  0  0  0  0  0  0
   -0.7500    1.2990    0.0000 C   0  0  0  0  0  0  0  0  0  0  0  0
    0.7500    1.2990    0.0000 C   0  0  0  0  0  0  0  0  0  0  0  0
    1.5000    2.5981    0.0000 O   0  0  0  0  0  0  0  0  0  0  0  0
    3.0000    2.5981    0.0000 C   0  0  0  0  0  0  0  0  0  0  0  0
  1  2  1  0
  2  3  1  0
  3  4  2  0
  4  5  1  0
  5  6  2  0
  6  7  1  0
  7  8  1  0
  8  9  2  0
  9 10  1  0
 10 11  2  0
 11 12  1  0
 11 13  1  0
  7 14  2  0
 14 15  1  0
 15 16  1  0
 16 17  1  0
 17 18  1  0
 18 19  1  0
 19 20  1  0
 20 21  1  0
 21 22  2  0
 22 23  1  0
 23 24  2  0
 24 25  1  0
 25 26  2  0
 25 27  1  0
 27 28  1  0
 24 29  1  0
 29 30  2  0
 20 31  1  0
 31 32  1  0
 15 33  2  0
 33 34  1  0
 34 35  2  0
 35 36  1  0
 36 37  1  0
 35  3  1  0
 33  5  1  0
 13  8  1  0
 32 17  1  0
 30 21  1  0
M  END
>  <molecule_chembl_id>  (627) 
CHEMBL4862662

>  <canonical_smiles>  (627) 
COc1cc2nc(-c3ccc(C)o3)cc(NC3CCN(c4ncc(C(=O)NO)cn4)CC3)c2cc1OC

>  <pchembl_value_mean>  (627) 
6.39

>  <document_chembl_id>  (627) 
CHEMBL4834403

$$$$

     RDKit          2D

 26 28  0  0  0  0  0  0  0  0999 V2000
    3.0000    0.0000    0.0000 C   0  0  0  0  0  0  0  0  0  0  0  0
    1.5000    0.0000    0.0000 C   0  0  0  0  0  0  0  0  0  0  0  0
    0.7500   -1.2990    0.0000 C   0  0  0  0  0  0  0  0  0  0  0  0
   -0.7500   -1.2990    0.0000 C   0  0  0  0  0  0  0  0  0  0  0  0
   -1.5000    0.0000    0.0000 C   0  0  0  0  0  0  0  0  0  0  0  0
   -3.0000    0.0000    0.0000 C   0  0  0  0  0  0  0  0  0  0  0  0
   -3.7500    1.2990    0.0000 C   0  0  0  0  0  0  0  0  0  0  0  0
   -5.2500    1.2990    0.0000 C   0  0  0  0  0  0  0  0  0  0  0  0
   -6.0000    2.5981    0.0000 C   0  0  0  0  0  0  0  0  0  0  0  0
   -5.2500    3.8971    0.0000 C   0  0  0  0  0  0  0  0  0  0  0  0
   -6.0000    5.1962    0.0000 C   0  0  0  0  0  0  0  0  0  0  0  0
   -5.2500    6.4952    0.0000 C   0  0  0  0  0  0  0  0  0  0  0  0
   -6.0000    7.7942    0.0000 C   0  0  0  0  0  0  0  0  0  0  0  0
   -7.5000    7.7942    0.0000 C   0  0  0  0  0  0  0  0  0  0  0  0
   -8.2500    9.0933    0.0000 C   0  0  0  0  0  0  0  0  0  0  0  0
   -9.7500    9.0933    0.0000 O   0  0  0  0  0  0  0  0  0  0  0  0
   -7.5000   10.3923    0.0000 N   0  0  0  0  0  0  0  0  0  0  0  0
   -8.2500   11.6913    0.0000 O   0  0  0  0  0  0  0  0  0  0  0  0
   -8.2500    6.4952    0.0000 C   0  0  0  0  0  0  0  0  0  0  0  0
   -7.5000    5.1962    0.0000 C   0  0  0  0  0  0  0  0  0  0  0  0
   -6.0000    0.0000    0.0000 C   0  0  0  0  0  0  0  0  0  0  0  0
   -5.2500   -1.2990    0.0000 C   0  0  0  0  0  0  0  0  0  0  0  0
   -3.7500   -1.2990    0.0000 N   0  0  0  0  0  0  0  0  0  0  0  0
   -0.7500    1.2990    0.0000 C   0  0  0  0  0  0  0  0  0  0  0  0
   -1.5000    2.5981    0.0000 F   0  0  0  0  0  0  0  0  0  0  0  0
    0.7500    1.2990    0.0000 C   0  0  0  0  0  0  0  0  0  0  0  0
  1  2  1  0
  2  3  2  0
  3  4  1  0
  4  5  2  0
  5  6  1  0
  6  7  2  0
  7  8  1  0
  8  9  1  0
  9 10  2  3
 10 11  1  0
 11 12  2  0
 12 13  1  0
 13 14  2  0
 14 15  1  0
 15 16  2  0
 15 17  1  0
 17 18  1  0
 14 19  1  0
 19 20  2  0
  8 21  2  0
 21 22  1  0
 22 23  2  0
  5 24  1  0
 24 25  1  0
 24 26  2  0
 26  2  1  0
 23  6  1  0
 20 11  1  0
M  END
>  <molecule_chembl_id>  (628) 
CHEMBL5093633

>  <canonical_smiles>  (628) 
Cc1ccc(-c2cc(C=Cc3ccc(C(=O)NO)cc3)ccn2)c(F)c1

>  <pchembl_value_mean>  (628) 
6.39

>  <document_chembl_id>  (628) 
CHEMBL5038581

$$$$

     RDKit          2D

 19 20  0  0  0  0  0  0  0  0999 V2000
    3.7500   -1.2990    0.0000 C   0  0  0  0  0  0  0  0  0  0  0  0
    3.0000    0.0000    0.0000 O   0  0  0  0  0  0  0  0  0  0  0  0
    1.5000    0.0000    0.0000 C   0  0  0  0  0  0  0  0  0  0  0  0
    0.7500   -1.2990    0.0000 C   0  0  0  0  0  0  0  0  0  0  0  0
   -0.7500   -1.2990    0.0000 C   0  0  0  0  0  0  0  0  0  0  0  0
   -1.5000    0.0000    0.0000 C   0  0  0  0  0  0  0  0  0  0  0  0
   -3.0000    0.0000    0.0000 N   0  0  0  0  0  0  0  0  0  0  0  0
   -3.7500    1.2990    0.0000 C   0  0  0  0  0  0  0  0  0  0  0  0
   -3.0000    2.5981    0.0000 N   0  0  0  0  0  0  0  0  0  0  0  0
   -3.7500    3.8971    0.0000 C   0  0  0  0  0  0  0  0  0  0  0  0
   -5.2500    3.8971    0.0000 C   0  0  0  0  0  0  0  0  0  0  0  0
   -6.0000    5.1962    0.0000 C   0  0  0  0  0  0  0  0  0  0  0  0
   -7.5000    5.1962    0.0000 O   0  0  0  0  0  0  0  0  0  0  0  0
   -5.2500    6.4952    0.0000 N   0  0  0  0  0  0  0  0  0  0  0  0
   -6.0000    7.7942    0.0000 O   0  0  0  0  0  0  0  0  0  0  0  0
   -6.0000    2.5981    0.0000 C   0  0  0  0  0  0  0  0  0  0  0  0
   -5.2500    1.2990    0.0000 N   0  0  0  0  0  0  0  0  0  0  0  0
   -0.7500    1.2990    0.0000 C   0  0  0  0  0  0  0  0  0  0  0  0
    0.7500    1.2990    0.0000 C   0  0  0  0  0  0  0  0  0  0  0  0
  1  2  1  0
  2  3  1  0
  3  4  2  0
  4  5  1  0
  5  6  2  0
  6  7  1  0
  7  8  1  0
  8  9  2  0
  9 10  1  0
 10 11  2  0
 11 12  1  0
 12 13  2  0
 12 14  1  0
 14 15  1  0
 11 16  1  0
 16 17  2  0
  6 18  1  0
 18 19  2  0
 19  3  1  0
 17  8  1  0
M  END
>  <molecule_chembl_id>  (629) 
CHEMBL3652229

>  <canonical_smiles>  (629) 
COc1ccc(Nc2ncc(C(=O)NO)cn2)cc1

>  <pchembl_value_mean>  (629) 
6.4

>  <document_chembl_id>  (629) 
CHEMBL3639071

$$$$

     RDKit          2D

 35 39  0  0  0  0  0  0  0  0999 V2000
    3.0000    0.0000    0.0000 N   0  0  0  0  0  0  0  0  0  0  0  0
    1.5000    0.0000    0.0000 C   0  0  0  0  0  0  0  0  0  0  0  0
    0.7500   -1.2990    0.0000 C   0  0  0  0  0  0  0  0  0  0  0  0
   -0.7500   -1.2990    0.0000 C   0  0  0  0  0  0  0  0  0  0  0  0
   -1.5000    0.0000    0.0000 C   0  0  0  0  0  0  0  0  0  0  0  0
   -0.7500    1.2990    0.0000 C   0  0  0  0  0  0  0  0  0  0  0  0
    0.7500    1.2990    0.0000 C   0  0  0  0  0  0  0  0  0  0  0  0
    1.5000    2.5981    0.0000 N   0  0  0  0  0  0  0  0  0  0  0  0
    0.7500    3.8971    0.0000 C   0  0  0  0  0  0  0  0  0  0  0  0
   -0.7500    3.8971    0.0000 O   0  0  0  0  0  0  0  0  0  0  0  0
    1.5000    5.1962    0.0000 C   0  0  0  0  0  0  0  0  0  0  0  0
    3.0000    5.1962    0.0000 C   0  0  0  0  0  0  0  0  0  0  0  0
    3.7500    6.4952    0.0000 C   0  0  0  0  0  0  0  0  0  0  0  0
    3.0000    7.7942    0.0000 C   0  0  0  0  0  0  0  0  0  0  0  0
    3.7500    9.0933    0.0000 C   0  0  0  0  0  0  0  0  0  0  0  0
    5.2500    9.0933    0.0000 N   0  0  0  0  0  0  0  0  0  0  0  0
    6.0000   10.3923    0.0000 C   0  0  0  0  0  0  0  0  0  0  0  0
    5.3899   11.7626    0.0000 N   0  0  0  0  0  0  0  0  0  0  0  0
    6.5046   12.7663    0.0000 C   0  0  0  0  0  0  0  0  0  0  0  0
    5.3899   13.7700    0.0000 C   0  0  0  0  0  0  0  0  0  0  0  0
    5.7018   15.2372    0.0000 C   0  0  0  0  0  0  0  0  0  0  0  0
    4.5870   16.2409    0.0000 C   0  0  0  0  0  0  0  0  0  0  0  0
    3.1605   15.7774    0.0000 C   0  0  0  0  0  0  0  0  0  0  0  0
    2.8486   14.3102    0.0000 C   0  0  0  0  0  0  0  0  0  0  0  0
    3.9633   13.3065    0.0000 C   0  0  0  0  0  0  0  0  0  0  0  0
    7.3863   13.9798    0.0000 C   0  0  0  0  0  0  0  0  0  0  0  0
    8.8781   13.8231    0.0000 C   0  0  0  0  0  0  0  0  0  0  0  0
    9.7598   15.0366    0.0000 C   0  0  0  0  0  0  0  0  0  0  0  0
    9.1496   16.4069    0.0000 C   0  0  0  0  0  0  0  0  0  0  0  0
    7.6579   16.5637    0.0000 C   0  0  0  0  0  0  0  0  0  0  0  0
    6.7762   15.3502    0.0000 C   0  0  0  0  0  0  0  0  0  0  0  0
    7.8037   12.0163    0.0000 C   0  0  0  0  0  0  0  0  0  0  0  0
    7.4918   10.5491    0.0000 O   0  0  0  0  0  0  0  0  0  0  0  0
    1.5000    7.7942    0.0000 C   0  0  0  0  0  0  0  0  0  0  0  0
    0.7500    6.4952    0.0000 C   0  0  0  0  0  0  0  0  0  0  0  0
  1  2  1  0
  2  3  2  0
  3  4  1  0
  4  5  2  0
  5  6  1  0
  6  7  2  0
  7  8  1  0
  8  9  1  0
  9 10  2  0
  9 11  1  0
 11 12  2  0
 12 13  1  0
 13 14  2  0
 14 15  1  0
 15 16  1  0
 16 17  1  0
 17 18  2  0
 18 19  1  0
 19 20  1  0
 20 21  2  0
 21 22  1  0
 22 23  2  0
 23 24  1  0
 24 25  2  0
 19 26  1  0
 26 27  2  0
 27 28  1  0
 28 29  2  0
 29 30  1  0
 30 31  2  0
 19 32  1  0
 32 33  1  0
 14 34  1  0
 34 35  2  0
  7  2  1  0
 35 11  1  0
 33 17  1  0
 25 20  1  0
 31 26  1  0
M  END
>  <molecule_chembl_id>  (630) 
CHEMBL3605504

>  <canonical_smiles>  (630) 
Nc1ccccc1NC(=O)c1ccc(CNC2=NC(c3ccccc3)(c3ccccc3)CO2)cc1

>  <pchembl_value_mean>  (630) 
6.4

>  <document_chembl_id>  (630) 
CHEMBL3603817

$$$$

     RDKit          2D

 26 28  0  0  0  0  0  0  0  0999 V2000
   -7.7484   -7.0799    0.0000 O   0  0  0  0  0  0  0  0  0  0  0  0
   -7.5917   -5.5881    0.0000 C   0  0  0  0  0  0  0  0  0  0  0  0
   -6.2213   -4.9780    0.0000 C   0  0  0  0  0  0  0  0  0  0  0  0
   -5.0078   -5.8597    0.0000 C   0  0  0  0  0  0  0  0  0  0  0  0
   -3.6375   -5.2496    0.0000 C   0  0  0  0  0  0  0  0  0  0  0  0
   -2.4240   -6.1312    0.0000 C   0  0  0  0  0  0  0  0  0  0  0  0
   -1.0537   -5.5211    0.0000 C   0  0  0  0  0  0  0  0  0  0  0  0
    0.2454   -6.2711    0.0000 C   0  0  0  0  0  0  0  0  0  0  0  0
    1.3601   -5.2674    0.0000 C   0  0  0  0  0  0  0  0  0  0  0  0
    0.7500   -3.8971    0.0000 N   0  0  0  0  0  0  0  0  0  0  0  0
    1.5000   -2.5981    0.0000 C   0  0  0  0  0  0  0  0  0  0  0  0
    0.7500   -1.2990    0.0000 C   0  0  0  0  0  0  0  0  0  0  0  0
    1.5000    0.0000    0.0000 C   0  0  0  0  0  0  0  0  0  0  0  0
    0.7500    1.2990    0.0000 C   0  0  0  0  0  0  0  0  0  0  0  0
   -0.7500    1.2990    0.0000 C   0  0  0  0  0  0  0  0  0  0  0  0
   -1.5000    0.0000    0.0000 C   0  0  0  0  0  0  0  0  0  0  0  0
   -3.0000    0.0000    0.0000 C   0  0  0  0  0  0  0  0  0  0  0  0
   -3.7500    1.2990    0.0000 C   0  0  0  0  0  0  0  0  0  0  0  0
   -5.2500    1.2990    0.0000 C   0  0  0  0  0  0  0  0  0  0  0  0
   -6.0000    0.0000    0.0000 C   0  0  0  0  0  0  0  0  0  0  0  0
   -5.2500   -1.2990    0.0000 C   0  0  0  0  0  0  0  0  0  0  0  0
   -3.7500   -1.2990    0.0000 C   0  0  0  0  0  0  0  0  0  0  0  0
   -0.7500   -1.2990    0.0000 C   0  0  0  0  0  0  0  0  0  0  0  0
   -0.7418   -4.0539    0.0000 N   0  0  0  0  0  0  0  0  0  0  0  0
   -8.8052   -4.7064    0.0000 N   0  0  0  0  0  0  0  0  0  0  0  0
  -10.1755   -5.3165    0.0000 O   0  0  0  0  0  0  0  0  0  0  0  0
  1  2  2  0
  2  3  1  0
  3  4  1  0
  4  5  1  0
  5  6  1  0
  6  7  1  0
  7  8  1  0
  8  9  2  0
  9 10  1  0
 10 11  1  0
 11 12  1  0
 12 13  2  0
 13 14  1  0
 14 15  2  0
 15 16  1  0
 16 17  1  0
 17 18  2  0
 18 19  1  0
 19 20  2  0
 20 21  1  0
 21 22  2  0
 16 23  2  0
 10 24  1  0
  2 25  1  0
 25 26  1  0
 24  7  2  0
 23 12  1  0
 22 17  1  0
M  END
>  <molecule_chembl_id>  (631) 
CHEMBL3335283

>  <canonical_smiles>  (631) 
O=C(CCCCc1ccn(Cc2cccc(-c3ccccc3)c2)n1)NO

>  <pchembl_value_mean>  (631) 
6.4

>  <document_chembl_id>  (631) 
CHEMBL3352093

$$$$

     RDKit          2D

 28 32  0  0  0  0  0  0  0  0999 V2000
    3.7500   -1.2990    0.0000 N   0  0  0  0  0  0  0  0  0  0  0  0
    3.0000    0.0000    0.0000 C   0  0  0  0  0  0  0  0  0  0  0  0
    3.7500    1.2990    0.0000 N   0  0  0  0  0  0  0  0  0  0  0  0
    5.2500    1.2990    0.0000 O   0  0  0  0  0  0  0  0  0  0  0  0
    1.5000    0.0000    0.0000 C   0  0  0  0  0  0  0  0  0  0  0  0
    0.7500   -1.2990    0.0000 C   0  0  0  0  0  0  0  0  0  0  0  0
   -0.7500   -1.2990    0.0000 C   0  0  0  0  0  0  0  0  0  0  0  0
   -1.5000    0.0000    0.0000 C   0  0  0  0  0  0  0  0  0  0  0  0
   -2.9672    0.3119    0.0000 N   0  0  0  0  0  0  0  0  0  0  0  0
   -3.1240    1.8037    0.0000 C   0  0  0  0  0  0  0  0  0  0  0  0
   -4.4231    2.5537    0.0000 C   0  0  0  0  0  0  0  0  0  0  0  0
   -4.4231    4.0537    0.0000 C   0  0  0  0  0  0  0  0  0  0  0  0
   -5.7221    4.8037    0.0000 C   0  0  0  0  0  0  0  0  0  0  0  0
   -7.0211    4.0537    0.0000 C   0  0  0  0  0  0  0  0  0  0  0  0
   -7.0211    2.5537    0.0000 C   0  0  0  0  0  0  0  0  0  0  0  0
   -8.3202    1.8037    0.0000 C   0  0  0  0  0  0  0  0  0  0  0  0
   -9.6905    2.4138    0.0000 C   0  0  0  0  0  0  0  0  0  0  0  0
  -10.6942    1.2990    0.0000 N   0  0  0  0  0  0  0  0  0  0  0  0
  -12.1942    1.2990    0.0000 C   0  0  0  0  0  0  0  0  0  0  0  0
  -12.9442    0.0000    0.0000 C   0  0  0  0  0  0  0  0  0  0  0  0
  -12.1942   -1.2990    0.0000 C   0  0  0  0  0  0  0  0  0  0  0  0
  -10.6942   -1.2990    0.0000 C   0  0  0  0  0  0  0  0  0  0  0  0
   -9.9442    0.0000    0.0000 C   0  0  0  0  0  0  0  0  0  0  0  0
   -8.4770    0.3119    0.0000 N   0  0  0  0  0  0  0  0  0  0  0  0
   -5.7221    1.8037    0.0000 C   0  0  0  0  0  0  0  0  0  0  0  0
   -1.7537    2.4138    0.0000 N   0  0  0  0  0  0  0  0  0  0  0  0
   -0.7500    1.2990    0.0000 C   0  0  0  0  0  0  0  0  0  0  0  0
    0.7500    1.2990    0.0000 C   0  0  0  0  0  0  0  0  0  0  0  0
  1  2  2  0
  2  3  1  0
  3  4  1  0
  2  5  1  0
  5  6  2  0
  6  7  1  0
  7  8  2  0
  8  9  1  0
  9 10  2  0
 10 11  1  0
 11 12  2  0
 12 13  1  0
 13 14  2  0
 14 15  1  0
 15 16  1  0
 16 17  2  0
 17 18  1  0
 18 19  1  0
 19 20  2  0
 20 21  1  0
 21 22  2  0
 22 23  1  0
 23 24  2  0
 15 25  2  0
 10 26  1  0
 26 27  1  0
 27 28  2  0
 28  5  1  0
 27  8  1  0
 25 11  1  0
 24 16  1  0
 23 18  1  0
M  END
>  <molecule_chembl_id>  (632) 
CHEMBL4846752

>  <canonical_smiles>  (632) 
N=C(NO)c1ccc2nc(-c3cccc(-c4cn5ccccc5n4)c3)[nH]c2c1

>  <pchembl_value_mean>  (632) 
6.4

>  <document_chembl_id>  (632) 
CHEMBL4811298

$$$$

     RDKit          2D

 29 31  0  0  0  0  0  0  0  0999 V2000
   -5.2500    3.8971    0.0000 C   0  0  0  0  0  0  0  0  0  0  0  0
   -6.0000    2.5981    0.0000 O   0  0  0  0  0  0  0  0  0  0  0  0
   -5.2500    1.2990    0.0000 C   0  0  0  0  0  0  0  0  0  0  0  0
   -3.7500    1.2990    0.0000 C   0  0  0  0  0  0  0  0  0  0  0  0
   -3.0000    0.0000    0.0000 C   0  0  0  0  0  0  0  0  0  0  0  0
   -3.7500   -1.2990    0.0000 C   0  0  0  0  0  0  0  0  0  0  0  0
   -3.0000   -2.5981    0.0000 N   0  0  0  0  0  0  0  0  0  0  0  0
   -3.7500   -3.8971    0.0000 C   0  0  0  0  0  0  0  0  0  0  0  0
   -1.5000   -2.5981    0.0000 C   0  0  0  0  0  0  0  0  0  0  0  0
   -0.7500   -3.8971    0.0000 N   0  0  0  0  0  0  0  0  0  0  0  0
    0.7500   -3.8971    0.0000 C   0  0  0  0  0  0  0  0  0  0  0  0
    1.5000   -5.1962    0.0000 C   0  0  0  0  0  0  0  0  0  0  0  0
    1.5000   -2.5981    0.0000 N   0  0  0  0  0  0  0  0  0  0  0  0
    0.7500   -1.2990    0.0000 C   0  0  0  0  0  0  0  0  0  0  0  0
    1.5000    0.0000    0.0000 C   0  0  0  0  0  0  0  0  0  0  0  0
    0.7500    1.2990    0.0000 C   0  0  0  0  0  0  0  0  0  0  0  0
   -0.7500    1.2990    0.0000 C   0  0  0  0  0  0  0  0  0  0  0  0
   -1.5000    0.0000    0.0000 C   0  0  0  0  0  0  0  0  0  0  0  0
   -0.7500   -1.2990    0.0000 C   0  0  0  0  0  0  0  0  0  0  0  0
   -5.2500   -1.2990    0.0000 C   0  0  0  0  0  0  0  0  0  0  0  0
   -6.0000    0.0000    0.0000 C   0  0  0  0  0  0  0  0  0  0  0  0
   -7.5000    0.0000    0.0000 O   0  0  0  0  0  0  0  0  0  0  0  0
   -8.2500   -1.2990    0.0000 C   0  0  0  0  0  0  0  0  0  0  0  0
   -9.7500   -1.2990    0.0000 C   0  0  0  0  0  0  0  0  0  0  0  0
  -10.5000   -2.5981    0.0000 C   0  0  0  0  0  0  0  0  0  0  0  0
  -12.0000   -2.5981    0.0000 C   0  0  0  0  0  0  0  0  0  0  0  0
  -12.7500   -1.2990    0.0000 O   0  0  0  0  0  0  0  0  0  0  0  0
  -12.7500   -3.8971    0.0000 N   0  0  0  0  0  0  0  0  0  0  0  0
  -14.2500   -3.8971    0.0000 O   0  0  0  0  0  0  0  0  0  0  0  0
  1  2  1  0
  2  3  1  0
  3  4  2  0
  4  5  1  0
  5  6  2  0
  6  7  1  0
  7  8  1  0
  7  9  1  0
  9 10  2  0
 10 11  1  0
 11 12  1  0
 11 13  2  0
 13 14  1  0
 14 15  2  0
 15 16  1  0
 16 17  2  0
 17 18  1  0
 18 19  2  0
  6 20  1  0
 20 21  2  0
 21 22  1  0
 22 23  1  0
 23 24  1  0
 24 25  1  0
 25 26  1  0
 26 27  2  0
 26 28  1  0
 28 29  1  0
 21  3  1  0
 19  9  1  0
 19 14  1  0
M  END
>  <molecule_chembl_id>  (633) 
CHEMBL3774414

>  <canonical_smiles>  (633) 
COc1ccc(N(C)c2nc(C)nc3ccccc23)cc1OCCCC(=O)NO

>  <pchembl_value_mean>  (633) 
6.41

>  <document_chembl_id>  (633) 
CHEMBL3774354

$$$$

     RDKit          2D

 36 39  0  0  0  0  0  0  0  0999 V2000
   -7.2317   -6.0469    0.0000 C   0  0  0  0  0  0  0  0  0  0  0  0
   -6.1170   -7.0506    0.0000 O   0  0  0  0  0  0  0  0  0  0  0  0
   -4.6904   -6.5871    0.0000 C   0  0  0  0  0  0  0  0  0  0  0  0
   -4.3786   -5.1199    0.0000 C   0  0  0  0  0  0  0  0  0  0  0  0
   -2.9520   -4.6564    0.0000 C   0  0  0  0  0  0  0  0  0  0  0  0
   -2.6401   -3.1891    0.0000 C   0  0  0  0  0  0  0  0  0  0  0  0
   -3.7548   -2.1855    0.0000 O   0  0  0  0  0  0  0  0  0  0  0  0
   -1.2135   -2.7256    0.0000 C   0  0  0  0  0  0  0  0  0  0  0  0
   -0.0000   -3.6073    0.0000 C   0  0  0  0  0  0  0  0  0  0  0  0
    1.2135   -2.7256    0.0000 N   0  0  0  0  0  0  0  0  0  0  0  0
    2.6401   -3.1891    0.0000 C   0  0  0  0  0  0  0  0  0  0  0  0
    2.9520   -4.6564    0.0000 C   0  0  0  0  0  0  0  0  0  0  0  0
    1.8373   -5.6601    0.0000 C   0  0  0  0  0  0  0  0  0  0  0  0
    2.1491   -7.1273    0.0000 C   0  0  0  0  0  0  0  0  0  0  0  0
    3.5757   -7.5908    0.0000 C   0  0  0  0  0  0  0  0  0  0  0  0
    3.8876   -9.0580    0.0000 C   0  0  0  0  0  0  0  0  0  0  0  0
    2.7729  -10.0617    0.0000 C   0  0  0  0  0  0  0  0  0  0  0  0
    3.0847  -11.5290    0.0000 C   0  0  0  0  0  0  0  0  0  0  0  0
    4.5113  -11.9925    0.0000 O   0  0  0  0  0  0  0  0  0  0  0  0
    1.9700  -12.5326    0.0000 N   0  0  0  0  0  0  0  0  0  0  0  0
    2.2819  -13.9999    0.0000 O   0  0  0  0  0  0  0  0  0  0  0  0
    4.6904   -6.5871    0.0000 C   0  0  0  0  0  0  0  0  0  0  0  0
    4.3786   -5.1199    0.0000 C   0  0  0  0  0  0  0  0  0  0  0  0
    0.7500   -1.2990    0.0000 C   0  0  0  0  0  0  0  0  0  0  0  0
    1.5000    0.0000    0.0000 C   0  0  0  0  0  0  0  0  0  0  0  0
    0.7500    1.2990    0.0000 C   0  0  0  0  0  0  0  0  0  0  0  0
   -0.7500    1.2990    0.0000 C   0  0  0  0  0  0  0  0  0  0  0  0
   -1.5000    0.0000    0.0000 C   0  0  0  0  0  0  0  0  0  0  0  0
   -0.7500   -1.2990    0.0000 C   0  0  0  0  0  0  0  0  0  0  0  0
   -1.8373   -5.6601    0.0000 C   0  0  0  0  0  0  0  0  0  0  0  0
   -2.1491   -7.1273    0.0000 C   0  0  0  0  0  0  0  0  0  0  0  0
   -1.0344   -8.1310    0.0000 O   0  0  0  0  0  0  0  0  0  0  0  0
   -1.3463   -9.5982    0.0000 C   0  0  0  0  0  0  0  0  0  0  0  0
   -3.5757   -7.5908    0.0000 C   0  0  0  0  0  0  0  0  0  0  0  0
   -3.8876   -9.0580    0.0000 O   0  0  0  0  0  0  0  0  0  0  0  0
   -5.3142   -9.5216    0.0000 C   0  0  0  0  0  0  0  0  0  0  0  0
  1  2  1  0
  2  3  1  0
  3  4  2  0
  4  5  1  0
  5  6  1  0
  6  7  2  0
  6  8  1  0
  8  9  2  0
  9 10  1  0
 10 11  1  0
 11 12  1  0
 12 13  2  0
 13 14  1  0
 14 15  2  0
 15 16  1  0
 16 17  2  3
 17 18  1  0
 18 19  2  0
 18 20  1  0
 20 21  1  0
 15 22  1  0
 22 23  2  0
 10 24  1  0
 24 25  2  0
 25 26  1  0
 26 27  2  0
 27 28  1  0
 28 29  2  0
  5 30  2  0
 30 31  1  0
 31 32  1  0
 32 33  1  0
 31 34  2  0
 34 35  1  0
 35 36  1  0
 34  3  1  0
 29  8  1  0
 23 12  1  0
 29 24  1  0
M  END
>  <molecule_chembl_id>  (634) 
CHEMBL4098353

>  <canonical_smiles>  (634) 
COc1cc(C(=O)c2cn(Cc3ccc(C=CC(=O)NO)cc3)c3ccccc23)cc(OC)c1OC

>  <pchembl_value_mean>  (634) 
6.41

>  <document_chembl_id>  (634) 
CHEMBL4041521

$$$$

     RDKit          2D

 25 27  0  0  0  0  0  0  0  0999 V2000
    4.8308   -6.3240    0.0000 C   0  0  0  0  0  0  0  0  0  0  0  0
    4.6740   -4.8322    0.0000 C   0  0  0  0  0  0  0  0  0  0  0  0
    3.3037   -4.2221    0.0000 C   0  0  0  0  0  0  0  0  0  0  0  0
    2.9918   -2.7549    0.0000 C   0  0  0  0  0  0  0  0  0  0  0  0
    1.5000   -2.5981    0.0000 C   0  0  0  0  0  0  0  0  0  0  0  0
    0.7500   -1.2990    0.0000 C   0  0  0  0  0  0  0  0  0  0  0  0
    1.5000    0.0000    0.0000 C   0  0  0  0  0  0  0  0  0  0  0  0
    0.7500    1.2990    0.0000 C   0  0  0  0  0  0  0  0  0  0  0  0
   -0.7500    1.2990    0.0000 C   0  0  0  0  0  0  0  0  0  0  0  0
   -1.5000    2.5981    0.0000 F   0  0  0  0  0  0  0  0  0  0  0  0
   -1.5000    0.0000    0.0000 C   0  0  0  0  0  0  0  0  0  0  0  0
   -0.7500   -1.2990    0.0000 C   0  0  0  0  0  0  0  0  0  0  0  0
    0.8899   -3.9684    0.0000 N   0  0  0  0  0  0  0  0  0  0  0  0
    2.0046   -4.9721    0.0000 N   0  0  0  0  0  0  0  0  0  0  0  0
    1.8478   -6.4639    0.0000 C   0  0  0  0  0  0  0  0  0  0  0  0
    0.4775   -7.0740    0.0000 C   0  0  0  0  0  0  0  0  0  0  0  0
   -0.7360   -6.1923    0.0000 C   0  0  0  0  0  0  0  0  0  0  0  0
   -2.1063   -6.8024    0.0000 C   0  0  0  0  0  0  0  0  0  0  0  0
   -2.2631   -8.2942    0.0000 C   0  0  0  0  0  0  0  0  0  0  0  0
   -3.6335   -8.9043    0.0000 C   0  0  0  0  0  0  0  0  0  0  0  0
   -3.7902  -10.3961    0.0000 O   0  0  0  0  0  0  0  0  0  0  0  0
   -4.8470   -8.0226    0.0000 N   0  0  0  0  0  0  0  0  0  0  0  0
   -6.2173   -8.6327    0.0000 O   0  0  0  0  0  0  0  0  0  0  0  0
   -1.0496   -9.1759    0.0000 C   0  0  0  0  0  0  0  0  0  0  0  0
    0.3207   -8.5658    0.0000 C   0  0  0  0  0  0  0  0  0  0  0  0
  1  2  1  0
  2  3  1  0
  3  4  2  0
  4  5  1  0
  5  6  1  0
  6  7  2  0
  7  8  1  0
  8  9  2  0
  9 10  1  0
  9 11  1  0
 11 12  2  0
  5 13  2  0
 13 14  1  0
 14 15  1  0
 15 16  1  0
 16 17  2  0
 17 18  1  0
 18 19  2  0
 19 20  1  0
 20 21  2  0
 20 22  1  0
 22 23  1  0
 19 24  1  0
 24 25  2  0
 14  3  1  0
 25 16  1  0
 12  6  1  0
M  END
>  <molecule_chembl_id>  (635) 
CHEMBL4224911

>  <canonical_smiles>  (635) 
CCc1cc(-c2ccc(F)cc2)nn1Cc1ccc(C(=O)NO)cc1

>  <pchembl_value_mean>  (635) 
6.41

>  <document_chembl_id>  (635) 
CHEMBL4219109

$$$$

     RDKit          2D

 20 21  0  0  0  0  0  0  0  0999 V2000
    3.7500    1.2990    0.0000 O   0  0  0  0  0  0  0  0  0  0  0  0
    3.0000    0.0000    0.0000 C   0  0  0  0  0  0  0  0  0  0  0  0
    3.7500   -1.2990    0.0000 N   0  0  0  0  0  0  0  0  0  0  0  0
    5.2500   -1.2990    0.0000 O   0  0  0  0  0  0  0  0  0  0  0  0
    1.5000    0.0000    0.0000 C   0  0  0  0  0  0  0  0  0  0  0  0
    0.7500   -1.2990    0.0000 C   0  0  0  0  0  0  0  0  0  0  0  0
   -0.7500   -1.2990    0.0000 N   0  0  0  0  0  0  0  0  0  0  0  0
   -1.5000    0.0000    0.0000 C   0  0  0  0  0  0  0  0  0  0  0  0
   -3.0000    0.0000    0.0000 N   0  0  0  0  0  0  0  0  0  0  0  0
   -3.7500    1.2990    0.0000 C   0  0  0  0  0  0  0  0  0  0  0  0
   -5.2500    1.2990    0.0000 C   0  0  0  0  0  0  0  0  0  0  0  0
   -6.0000    2.5981    0.0000 C   0  0  0  0  0  0  0  0  0  0  0  0
   -5.2500    3.8971    0.0000 C   0  0  0  0  0  0  0  0  0  0  0  0
   -6.0000    5.1962    0.0000 C   0  0  0  0  0  0  0  0  0  0  0  0
   -7.5000    5.1962    0.0000 C   0  0  0  0  0  0  0  0  0  0  0  0
   -8.2500    3.8971    0.0000 C   0  0  0  0  0  0  0  0  0  0  0  0
   -7.5000    2.5981    0.0000 C   0  0  0  0  0  0  0  0  0  0  0  0
   -8.2500    1.2990    0.0000 Cl  0  0  0  0  0  0  0  0  0  0  0  0
   -0.7500    1.2990    0.0000 N   0  0  0  0  0  0  0  0  0  0  0  0
    0.7500    1.2990    0.0000 C   0  0  0  0  0  0  0  0  0  0  0  0
  1  2  2  0
  2  3  1  0
  3  4  1  0
  2  5  1  0
  5  6  2  0
  6  7  1  0
  7  8  2  0
  8  9  1  0
  9 10  1  0
 10 11  1  0
 11 12  1  0
 12 13  2  0
 13 14  1  0
 14 15  2  0
 15 16  1  0
 16 17  2  0
 17 18  1  0
  8 19  1  0
 19 20  2  0
 20  5  1  0
 17 12  1  0
M  END
>  <molecule_chembl_id>  (636) 
CHEMBL3655922

>  <canonical_smiles>  (636) 
O=C(NO)c1cnc(NCCc2ccccc2Cl)nc1

>  <pchembl_value_mean>  (636) 
6.41

>  <document_chembl_id>  (636) 
CHEMBL3639071

$$$$

     RDKit          2D

 37 41  0  0  0  0  0  0  0  0999 V2000
    3.0000    0.0000    0.0000 N   0  0  0  0  0  0  0  0  0  0  0  0
    1.5000    0.0000    0.0000 C   0  0  0  0  0  0  0  0  0  0  0  0
    0.7500   -1.2990    0.0000 C   0  0  0  0  0  0  0  0  0  0  0  0
   -0.7500   -1.2990    0.0000 C   0  0  0  0  0  0  0  0  0  0  0  0
   -1.5000    0.0000    0.0000 C   0  0  0  0  0  0  0  0  0  0  0  0
   -0.7500    1.2990    0.0000 C   0  0  0  0  0  0  0  0  0  0  0  0
    0.7500    1.2990    0.0000 C   0  0  0  0  0  0  0  0  0  0  0  0
    1.5000    2.5981    0.0000 N   0  0  0  0  0  0  0  0  0  0  0  0
    0.7500    3.8971    0.0000 C   0  0  0  0  0  0  0  0  0  0  0  0
   -0.7500    3.8971    0.0000 O   0  0  0  0  0  0  0  0  0  0  0  0
    1.5000    5.1962    0.0000 C   0  0  0  0  0  0  0  0  0  0  0  0
    3.0000    5.1962    0.0000 C   0  0  0  0  0  0  0  0  0  0  0  0
    3.7500    6.4952    0.0000 C   0  0  0  0  0  0  0  0  0  0  0  0
    3.0000    7.7942    0.0000 C   0  0  0  0  0  0  0  0  0  0  0  0
    3.7500    9.0933    0.0000 C   0  0  0  0  0  0  0  0  0  0  0  0
    5.2500    9.0933    0.0000 N   0  0  0  0  0  0  0  0  0  0  0  0
    6.0000   10.3923    0.0000 C   0  0  0  0  0  0  0  0  0  0  0  0
    5.2500   11.6913    0.0000 O   0  0  0  0  0  0  0  0  0  0  0  0
    7.5000   10.3923    0.0000 C   0  0  0  0  0  0  0  0  0  0  0  0
    8.3817   11.6058    0.0000 N   0  0  0  0  0  0  0  0  0  0  0  0
    9.8083   11.1423    0.0000 C   0  0  0  0  0  0  0  0  0  0  0  0
   11.0218   12.0240    0.0000 C   0  0  0  0  0  0  0  0  0  0  0  0
   12.3921   11.4139    0.0000 C   0  0  0  0  0  0  0  0  0  0  0  0
   13.6056   12.2956    0.0000 C   0  0  0  0  0  0  0  0  0  0  0  0
   13.4488   13.7873    0.0000 C   0  0  0  0  0  0  0  0  0  0  0  0
   14.6624   14.6690    0.0000 O   0  0  0  0  0  0  0  0  0  0  0  0
   12.0785   14.3974    0.0000 C   0  0  0  0  0  0  0  0  0  0  0  0
   10.8650   13.5158    0.0000 C   0  0  0  0  0  0  0  0  0  0  0  0
    9.8083    9.6423    0.0000 C   0  0  0  0  0  0  0  0  0  0  0  0
    8.3817    9.1788    0.0000 C   0  0  0  0  0  0  0  0  0  0  0  0
    7.9182    7.7522    0.0000 C   0  0  0  0  0  0  0  0  0  0  0  0
    8.7998    6.5387    0.0000 C   0  0  0  0  0  0  0  0  0  0  0  0
    7.9182    5.3251    0.0000 C   0  0  0  0  0  0  0  0  0  0  0  0
    6.4916    5.7887    0.0000 O   0  0  0  0  0  0  0  0  0  0  0  0
    6.4916    7.2887    0.0000 C   0  0  0  0  0  0  0  0  0  0  0  0
    1.5000    7.7942    0.0000 C   0  0  0  0  0  0  0  0  0  0  0  0
    0.7500    6.4952    0.0000 C   0  0  0  0  0  0  0  0  0  0  0  0
  1  2  1  0
  2  3  2  0
  3  4  1  0
  4  5  2  0
  5  6  1  0
  6  7  2  0
  7  8  1  0
  8  9  1  0
  9 10  2  0
  9 11  1  0
 11 12  2  0
 12 13  1  0
 13 14  2  0
 14 15  1  0
 15 16  1  0
 16 17  1  0
 17 18  2  0
 17 19  1  0
 19 20  1  0
 20 21  1  0
 21 22  1  0
 22 23  2  0
 23 24  1  0
 24 25  2  0
 25 26  1  0
 25 27  1  0
 27 28  2  0
 21 29  2  0
 29 30  1  0
 30 31  1  0
 31 32  1  0
 32 33  2  0
 33 34  1  0
 34 35  1  0
 14 36  1  0
 36 37  2  0
  7  2  1  0
 37 11  1  0
 30 19  2  0
 35 31  2  0
 28 22  1  0
M  END
>  <molecule_chembl_id>  (637) 
CHEMBL3670675

>  <canonical_smiles>  (637) 
Nc1ccccc1NC(=O)c1ccc(CNC(=O)c2[nH]c(-c3ccc(O)cc3)cc2-c2ccoc2)cc1

>  <pchembl_value_mean>  (637) 
6.41

>  <document_chembl_id>  (637) 
CHEMBL3638813

$$$$

     RDKit          2D

 22 24  0  0  0  0  0  0  0  0999 V2000
    6.0000    0.0000    0.0000 O   0  0  0  0  0  0  0  0  0  0  0  0
    5.2500   -1.2990    0.0000 C   0  0  0  0  0  0  0  0  0  0  0  0
    3.7500   -1.2990    0.0000 C   0  0  0  0  0  0  0  0  0  0  0  0
    3.0000    0.0000    0.0000 C   0  0  0  0  0  0  0  0  0  0  0  0
    1.5000    0.0000    0.0000 C   0  0  0  0  0  0  0  0  0  0  0  0
    0.7500   -1.2990    0.0000 C   0  0  0  0  0  0  0  0  0  0  0  0
   -0.7500   -1.2990    0.0000 C   0  0  0  0  0  0  0  0  0  0  0  0
   -1.5000    0.0000    0.0000 C   0  0  0  0  0  0  0  0  0  0  0  0
   -0.7500    1.2990    0.0000 C   0  0  0  0  0  0  0  0  0  0  0  0
   -1.7537    2.4138    0.0000 C   0  0  0  0  0  0  0  0  0  0  0  0
   -3.1240    1.8037    0.0000 C   0  0  0  0  0  0  0  0  0  0  0  0
   -2.9672    0.3119    0.0000 N   0  0  0  0  0  0  0  0  0  0  0  0
   -4.0819   -0.6918    0.0000 C   0  0  0  0  0  0  0  0  0  0  0  0
   -5.5085   -0.2283    0.0000 C   0  0  0  0  0  0  0  0  0  0  0  0
   -5.8204    1.2389    0.0000 C   0  0  0  0  0  0  0  0  0  0  0  0
   -7.2470    1.7024    0.0000 C   0  0  0  0  0  0  0  0  0  0  0  0
   -8.3617    0.6987    0.0000 C   0  0  0  0  0  0  0  0  0  0  0  0
   -8.0498   -0.7685    0.0000 C   0  0  0  0  0  0  0  0  0  0  0  0
   -6.6232   -1.2320    0.0000 C   0  0  0  0  0  0  0  0  0  0  0  0
    0.7500    1.2990    0.0000 C   0  0  0  0  0  0  0  0  0  0  0  0
    6.0000   -2.5981    0.0000 N   0  0  0  0  0  0  0  0  0  0  0  0
    7.5000   -2.5981    0.0000 O   0  0  0  0  0  0  0  0  0  0  0  0
  1  2  2  0
  2  3  1  0
  3  4  2  3
  4  5  1  0
  5  6  2  0
  6  7  1  0
  7  8  2  0
  8  9  1  0
  9 10  1  0
 10 11  2  0
 11 12  1  0
 12 13  1  0
 13 14  1  0
 14 15  2  0
 15 16  1  0
 16 17  2  0
 17 18  1  0
 18 19  2  0
  9 20  2  0
  2 21  1  0
 21 22  1  0
 20  5  1  0
 12  8  1  0
 19 14  1  0
M  END
>  <molecule_chembl_id>  (638) 
CHEMBL2048755

>  <canonical_smiles>  (638) 
O=C(C=Cc1ccc2c(ccn2Cc2ccccc2)c1)NO

>  <pchembl_value_mean>  (638) 
6.42

>  <document_chembl_id>  (638) 
CHEMBL2046324

$$$$

     RDKit          2D

 21 23  0  0  0  0  0  0  0  0999 V2000
    3.7500    1.2990    0.0000 O   0  0  0  0  0  0  0  0  0  0  0  0
    3.0000    0.0000    0.0000 C   0  0  0  0  0  0  0  0  0  0  0  0
    3.7500   -1.2990    0.0000 N   0  0  0  0  0  0  0  0  0  0  0  0
    5.2500   -1.2990    0.0000 O   0  0  0  0  0  0  0  0  0  0  0  0
    1.5000    0.0000    0.0000 C   0  0  0  0  0  0  0  0  0  0  0  0
    0.7500   -1.2990    0.0000 C   0  0  0  0  0  0  0  0  0  0  0  0
   -0.7500   -1.2990    0.0000 N   0  0  0  0  0  0  0  0  0  0  0  0
   -1.5000    0.0000    0.0000 C   0  0  0  0  0  0  0  0  0  0  0  0
   -3.0000    0.0000    0.0000 N   0  0  0  0  0  0  0  0  0  0  0  0
   -3.7500    1.2990    0.0000 C   0  0  0  0  0  0  0  0  0  0  0  0
   -2.6009    2.2632    0.0000 C   0  0  0  0  0  0  0  0  0  0  0  0
   -2.8614    3.7404    0.0000 C   0  0  0  0  0  0  0  0  0  0  0  0
   -1.7123    4.7046    0.0000 C   0  0  0  0  0  0  0  0  0  0  0  0
   -1.9728    6.1818    0.0000 C   0  0  0  0  0  0  0  0  0  0  0  0
   -3.3824    6.6949    0.0000 C   0  0  0  0  0  0  0  0  0  0  0  0
   -4.5314    5.7307    0.0000 C   0  0  0  0  0  0  0  0  0  0  0  0
   -4.2709    4.2535    0.0000 C   0  0  0  0  0  0  0  0  0  0  0  0
   -4.8991    2.2632    0.0000 C   0  0  0  0  0  0  0  0  0  0  0  0
   -5.1595    0.7860    0.0000 C   0  0  0  0  0  0  0  0  0  0  0  0
   -0.7500    1.2990    0.0000 N   0  0  0  0  0  0  0  0  0  0  0  0
    0.7500    1.2990    0.0000 C   0  0  0  0  0  0  0  0  0  0  0  0
  1  2  2  0
  2  3  1  0
  3  4  1  0
  2  5  1  0
  5  6  2  0
  6  7  1  0
  7  8  2  0
  8  9  1  0
  9 10  1  0
 10 11  1  0
 11 12  1  0
 12 13  2  0
 13 14  1  0
 14 15  2  0
 15 16  1  0
 16 17  2  0
 10 18  1  0
 18 19  1  0
  8 20  1  0
 20 21  2  0
 21  5  1  0
 19 10  1  0
 17 12  1  0
M  END
>  <molecule_chembl_id>  (639) 
CHEMBL3655986

>  <canonical_smiles>  (639) 
O=C(NO)c1cnc(NC2(Cc3ccccc3)CC2)nc1

>  <pchembl_value_mean>  (639) 
6.42

>  <document_chembl_id>  (639) 
CHEMBL3639071

$$$$

     RDKit          2D

 21 22  0  0  0  0  0  0  0  0999 V2000
    3.7500    1.2990    0.0000 O   0  0  0  0  0  0  0  0  0  0  0  0
    3.0000    0.0000    0.0000 C   0  0  0  0  0  0  0  0  0  0  0  0
    3.7500   -1.2990    0.0000 N   0  0  0  0  0  0  0  0  0  0  0  0
    5.2500   -1.2990    0.0000 O   0  0  0  0  0  0  0  0  0  0  0  0
    1.5000    0.0000    0.0000 C   0  0  0  0  0  0  0  0  0  0  0  0
    0.7500   -1.2990    0.0000 C   0  0  0  0  0  0  0  0  0  0  0  0
   -0.7500   -1.2990    0.0000 N   0  0  0  0  0  0  0  0  0  0  0  0
   -1.5000    0.0000    0.0000 C   0  0  0  0  0  0  0  0  0  0  0  0
   -3.0000    0.0000    0.0000 N   0  0  0  0  0  0  0  0  0  0  0  0
   -3.7500    1.2990    0.0000 C   0  0  0  0  0  0  0  0  0  0  0  0
   -3.0000    2.5981    0.0000 C   0  0  0  0  0  0  0  0  0  0  0  0
   -1.5000    2.5981    0.0000 F   0  0  0  0  0  0  0  0  0  0  0  0
   -3.7500    3.8971    0.0000 C   0  0  0  0  0  0  0  0  0  0  0  0
   -3.0000    5.1962    0.0000 F   0  0  0  0  0  0  0  0  0  0  0  0
   -5.2500    3.8971    0.0000 C   0  0  0  0  0  0  0  0  0  0  0  0
   -6.0000    2.5981    0.0000 C   0  0  0  0  0  0  0  0  0  0  0  0
   -7.5000    2.5981    0.0000 F   0  0  0  0  0  0  0  0  0  0  0  0
   -5.2500    1.2990    0.0000 C   0  0  0  0  0  0  0  0  0  0  0  0
   -6.0000    0.0000    0.0000 F   0  0  0  0  0  0  0  0  0  0  0  0
   -0.7500    1.2990    0.0000 N   0  0  0  0  0  0  0  0  0  0  0  0
    0.7500    1.2990    0.0000 C   0  0  0  0  0  0  0  0  0  0  0  0
  1  2  2  0
  2  3  1  0
  3  4  1  0
  2  5  1  0
  5  6  2  0
  6  7  1  0
  7  8  2  0
  8  9  1  0
  9 10  1  0
 10 11  2  0
 11 12  1  0
 11 13  1  0
 13 14  1  0
 13 15  2  0
 15 16  1  0
 16 17  1  0
 16 18  2  0
 18 19  1  0
  8 20  1  0
 20 21  2  0
 21  5  1  0
 18 10  1  0
M  END
>  <molecule_chembl_id>  (640) 
CHEMBL3652236

>  <canonical_smiles>  (640) 
O=C(NO)c1cnc(Nc2c(F)c(F)cc(F)c2F)nc1

>  <pchembl_value_mean>  (640) 
6.42

>  <document_chembl_id>  (640) 
CHEMBL3639071

$$$$

     RDKit          2D

 29 32  0  0  0  0  0  0  0  0999 V2000
   -7.5000   -5.1962    0.0000 O   0  0  0  0  0  0  0  0  0  0  0  0
   -6.0000   -5.1962    0.0000 C   0  0  0  0  0  0  0  0  0  0  0  0
   -5.2500   -6.4952    0.0000 N   0  0  0  0  0  0  0  0  0  0  0  0
   -6.0000   -7.7942    0.0000 O   0  0  0  0  0  0  0  0  0  0  0  0
   -5.2500   -3.8971    0.0000 C   0  0  0  0  0  0  0  0  0  0  0  0
   -3.7500   -3.8971    0.0000 C   0  0  0  0  0  0  0  0  0  0  0  0
   -3.0000   -2.5981    0.0000 N   0  0  0  0  0  0  0  0  0  0  0  0
   -3.7500   -1.2990    0.0000 C   0  0  0  0  0  0  0  0  0  0  0  0
   -3.0000    0.0000    0.0000 N   0  0  0  0  0  0  0  0  0  0  0  0
   -3.7500    1.2990    0.0000 C   0  0  0  0  0  0  0  0  0  0  0  0
   -2.3405    1.8121    0.0000 C   0  0  0  0  0  0  0  0  0  0  0  0
   -1.1914    0.8479    0.0000 C   0  0  0  0  0  0  0  0  0  0  0  0
    0.2181    1.3609    0.0000 C   0  0  0  0  0  0  0  0  0  0  0  0
    0.4786    2.8381    0.0000 C   0  0  0  0  0  0  0  0  0  0  0  0
   -0.6704    3.8023    0.0000 C   0  0  0  0  0  0  0  0  0  0  0  0
   -2.0800    3.2893    0.0000 C   0  0  0  0  0  0  0  0  0  0  0  0
   -4.8991    0.3349    0.0000 C   0  0  0  0  0  0  0  0  0  0  0  0
   -6.3086    0.8479    0.0000 C   0  0  0  0  0  0  0  0  0  0  0  0
   -6.5691    2.3251    0.0000 N   0  0  0  0  0  0  0  0  0  0  0  0
   -7.9786    2.8381    0.0000 C   0  0  0  0  0  0  0  0  0  0  0  0
   -8.2391    4.3153    0.0000 C   0  0  0  0  0  0  0  0  0  0  0  0
   -9.6486    4.8284    0.0000 C   0  0  0  0  0  0  0  0  0  0  0  0
  -10.7977    3.8642    0.0000 C   0  0  0  0  0  0  0  0  0  0  0  0
  -10.5372    2.3870    0.0000 C   0  0  0  0  0  0  0  0  0  0  0  0
   -9.1277    1.8739    0.0000 C   0  0  0  0  0  0  0  0  0  0  0  0
   -5.4200    3.2893    0.0000 C   0  0  0  0  0  0  0  0  0  0  0  0
   -4.0105    2.7762    0.0000 C   0  0  0  0  0  0  0  0  0  0  0  0
   -5.2500   -1.2990    0.0000 N   0  0  0  0  0  0  0  0  0  0  0  0
   -6.0000   -2.5981    0.0000 C   0  0  0  0  0  0  0  0  0  0  0  0
  1  2  2  0
  2  3  1  0
  3  4  1  0
  2  5  1  0
  5  6  2  0
  6  7  1  0
  7  8  2  0
  8  9  1  0
  9 10  1  0
 10 11  1  0
 11 12  2  0
 12 13  1  0
 13 14  2  0
 14 15  1  0
 15 16  2  0
 10 17  1  0
 17 18  1  0
 18 19  1  0
 19 20  1  0
 20 21  2  0
 21 22  1  0
 22 23  2  0
 23 24  1  0
 24 25  2  0
 19 26  1  0
 26 27  1  0
  8 28  1  0
 28 29  2  0
 29  5  1  0
 27 10  1  0
 16 11  1  0
 25 20  1  0
M  END
>  <molecule_chembl_id>  (641) 
CHEMBL3948528

>  <canonical_smiles>  (641) 
O=C(NO)c1cnc(NC2(c3ccccc3)CCN(c3ccccc3)CC2)nc1

>  <pchembl_value_mean>  (641) 
6.42

>  <document_chembl_id>  (641) 
CHEMBL3886590

$$$$

     RDKit          2D

 33 36  0  0  0  0  0  0  0  0999 V2000
    1.5000   -5.1962    0.0000 C   0  0  0  0  0  0  0  0  0  0  0  0
    0.7500   -3.8971    0.0000 N   0  0  0  0  0  0  0  0  0  0  0  0
    1.5000   -2.5981    0.0000 C   0  0  0  0  0  0  0  0  0  0  0  0
    3.0000   -2.5981    0.0000 O   0  0  0  0  0  0  0  0  0  0  0  0
    0.7500   -1.2990    0.0000 N   0  0  0  0  0  0  0  0  0  0  0  0
    1.5000    0.0000    0.0000 C   0  0  0  0  0  0  0  0  0  0  0  0
    0.7500    1.2990    0.0000 C   0  0  0  0  0  0  0  0  0  0  0  0
   -0.7500    1.2990    0.0000 C   0  0  0  0  0  0  0  0  0  0  0  0
   -0.4895    2.7762    0.0000 N   0  0  0  0  0  0  0  0  0  0  0  0
    0.9200    3.2893    0.0000 C   0  0  0  0  0  0  0  0  0  0  0  0
    2.0691    2.3251    0.0000 N   0  0  0  0  0  0  0  0  0  0  0  0
    3.4786    2.8381    0.0000 C   0  0  0  0  0  0  0  0  0  0  0  0
    3.7391    4.3153    0.0000 C   0  0  0  0  0  0  0  0  0  0  0  0
    5.1486    4.8284    0.0000 C   0  0  0  0  0  0  0  0  0  0  0  0
    5.4091    6.3056    0.0000 O   0  0  0  0  0  0  0  0  0  0  0  0
    6.2977    3.8642    0.0000 N   0  0  0  0  0  0  0  0  0  0  0  0
    7.7072    4.3772    0.0000 O   0  0  0  0  0  0  0  0  0  0  0  0
    2.5900    5.2795    0.0000 C   0  0  0  0  0  0  0  0  0  0  0  0
    1.1805    4.7665    0.0000 N   0  0  0  0  0  0  0  0  0  0  0  0
   -2.1595    1.8121    0.0000 C   0  0  0  0  0  0  0  0  0  0  0  0
   -2.4200    3.2893    0.0000 C   0  0  0  0  0  0  0  0  0  0  0  0
   -3.8296    3.8023    0.0000 C   0  0  0  0  0  0  0  0  0  0  0  0
   -4.9786    2.8381    0.0000 C   0  0  0  0  0  0  0  0  0  0  0  0
   -4.7181    1.3609    0.0000 C   0  0  0  0  0  0  0  0  0  0  0  0
   -3.3086    0.8479    0.0000 C   0  0  0  0  0  0  0  0  0  0  0  0
   -1.5000    0.0000    0.0000 C   0  0  0  0  0  0  0  0  0  0  0  0
   -0.7500   -1.2990    0.0000 C   0  0  0  0  0  0  0  0  0  0  0  0
   -0.7500   -3.8971    0.0000 C   0  0  0  0  0  0  0  0  0  0  0  0
   -1.5000   -2.5981    0.0000 C   0  0  0  0  0  0  0  0  0  0  0  0
   -3.0000   -2.5981    0.0000 C   0  0  0  0  0  0  0  0  0  0  0  0
   -3.7500   -3.8971    0.0000 C   0  0  0  0  0  0  0  0  0  0  0  0
   -3.0000   -5.1962    0.0000 C   0  0  0  0  0  0  0  0  0  0  0  0
   -1.5000   -5.1962    0.0000 C   0  0  0  0  0  0  0  0  0  0  0  0
  1  2  1  0
  2  3  1  0
  3  4  2  0
  3  5  1  0
  5  6  1  0
  6  7  1  0
  7  8  1  0
  8  9  1  0
  9 10  1  0
 10 11  2  0
 11 12  1  0
 12 13  2  0
 13 14  1  0
 14 15  2  0
 14 16  1  0
 16 17  1  0
 13 18  1  0
 18 19  2  0
  8 20  1  0
 20 21  2  0
 21 22  1  0
 22 23  2  0
 23 24  1  0
 24 25  2  0
  8 26  1  0
 26 27  1  0
  2 28  1  0
 28 29  2  0
 29 30  1  0
 30 31  2  0
 31 32  1  0
 32 33  2  0
 27  5  1  0
 33 28  1  0
 19 10  1  0
 25 20  1  0
M  END
>  <molecule_chembl_id>  (642) 
CHEMBL3972758

>  <canonical_smiles>  (642) 
CN(C(=O)N1CCC(Nc2ncc(C(=O)NO)cn2)(c2ccccc2)CC1)c1ccccc1

>  <pchembl_value_mean>  (642) 
6.42

>  <document_chembl_id>  (642) 
CHEMBL3886590

$$$$

     RDKit          2D

 20 21  0  0  0  0  0  0  0  0999 V2000
    3.7500    1.2990    0.0000 O   0  0  0  0  0  0  0  0  0  0  0  0
    3.0000    0.0000    0.0000 C   0  0  0  0  0  0  0  0  0  0  0  0
    3.7500   -1.2990    0.0000 N   0  0  0  0  0  0  0  0  0  0  0  0
    5.2500   -1.2990    0.0000 O   0  0  0  0  0  0  0  0  0  0  0  0
    1.5000    0.0000    0.0000 C   0  0  0  0  0  0  0  0  0  0  0  0
    0.7500   -1.2990    0.0000 C   0  0  0  0  0  0  0  0  0  0  0  0
   -0.7500   -1.2990    0.0000 C   0  0  0  0  0  0  0  0  0  0  0  0
   -1.5000    0.0000    0.0000 C   0  0  0  0  0  0  0  0  0  0  0  0
   -3.0000    0.0000    0.0000 C   0  0  0  0  0  0  0  0  0  0  0  0
   -3.7500   -1.2990    0.0000 O   0  0  0  0  0  0  0  0  0  0  0  0
   -3.7500    1.2990    0.0000 N   0  0  0  0  0  0  0  0  0  0  0  0
   -5.2500    1.2990    0.0000 C   0  0  0  0  0  0  0  0  0  0  0  0
   -6.0000    2.5981    0.0000 C   0  0  0  0  0  0  0  0  0  0  0  0
   -5.2500    3.8971    0.0000 C   0  0  0  0  0  0  0  0  0  0  0  0
   -6.0000    5.1962    0.0000 C   0  0  0  0  0  0  0  0  0  0  0  0
   -7.5000    5.1962    0.0000 C   0  0  0  0  0  0  0  0  0  0  0  0
   -8.2500    3.8971    0.0000 C   0  0  0  0  0  0  0  0  0  0  0  0
   -7.5000    2.5981    0.0000 C   0  0  0  0  0  0  0  0  0  0  0  0
   -0.7500    1.2990    0.0000 C   0  0  0  0  0  0  0  0  0  0  0  0
    0.7500    1.2990    0.0000 C   0  0  0  0  0  0  0  0  0  0  0  0
  1  2  2  0
  2  3  1  0
  3  4  1  0
  2  5  1  0
  5  6  2  0
  6  7  1  0
  7  8  2  0
  8  9  1  0
  9 10  2  0
  9 11  1  0
 11 12  1  0
 12 13  1  0
 13 14  2  0
 14 15  1  0
 15 16  2  0
 16 17  1  0
 17 18  2  0
  8 19  1  0
 19 20  2  0
 20  5  1  0
 18 13  1  0
M  END
>  <molecule_chembl_id>  (643) 
CHEMBL2333341

>  <canonical_smiles>  (643) 
O=C(NO)c1ccc(C(=O)NCc2ccccc2)cc1

>  <pchembl_value_mean>  (643) 
6.42

>  <document_chembl_id>  (643) 
CHEMBL2331470

$$$$

     RDKit          2D

 49 54  0  0  0  0  0  0  0  0999 V2000
    7.4466    3.7867    0.0000 C   0  0  0  0  0  0  0  0  0  0  0  0
    6.1476    4.5367    0.0000 O   0  0  0  0  0  0  0  0  0  0  0  0
    4.8486    3.7867    0.0000 C   0  0  0  0  0  0  0  0  0  0  0  0
    3.5495    4.5367    0.0000 C   0  0  0  0  0  0  0  0  0  0  0  0
    2.2505    3.7867    0.0000 C   0  0  0  0  0  0  0  0  0  0  0  0
    2.2505    2.2867    0.0000 C   0  0  0  0  0  0  0  0  0  0  0  0
    3.5495    1.5367    0.0000 C   0  0  0  0  0  0  0  0  0  0  0  0
    3.5495    0.0367    0.0000 O   0  0  0  0  0  0  0  0  0  0  0  0
    4.8486   -0.7133    0.0000 C   0  0  0  0  0  0  0  0  0  0  0  0
    4.8486    2.2867    0.0000 C   0  0  0  0  0  0  0  0  0  0  0  0
    6.1476    1.5367    0.0000 O   0  0  0  0  0  0  0  0  0  0  0  0
    6.1476    0.0367    0.0000 C   0  0  0  0  0  0  0  0  0  0  0  0
    1.0777    1.3515    0.0000 C   0  0  0  0  0  0  0  0  0  0  0  0
    1.7286    0.0000    0.0000 C   0  0  0  0  0  0  0  0  0  0  0  0
    1.0777   -1.3515    0.0000 C   0  0  0  0  0  0  0  0  0  0  0  0
   -0.3846   -1.6852    0.0000 C   0  0  0  0  0  0  0  0  0  0  0  0
   -0.7184   -3.1476    0.0000 O   0  0  0  0  0  0  0  0  0  0  0  0
   -2.1518   -3.5898    0.0000 C   0  0  0  0  0  0  0  0  0  0  0  0
   -1.5574   -0.7500    0.0000 C   0  0  0  0  0  0  0  0  0  0  0  0
   -2.9088   -1.4008    0.0000 O   0  0  0  0  0  0  0  0  0  0  0  0
   -1.5574    0.7500    0.0000 C   0  0  0  0  0  0  0  0  0  0  0  0
   -0.3846    1.6852    0.0000 C   0  0  0  0  0  0  0  0  0  0  0  0
   -1.0355    3.0367    0.0000 C   0  0  0  0  0  0  0  0  0  0  0  0
   -2.5355    3.0367    0.0000 N   0  0  0  0  0  0  0  0  0  0  0  0
   -3.2855    4.3357    0.0000 C   0  0  0  0  0  0  0  0  0  0  0  0
   -2.5355    5.6348    0.0000 O   0  0  0  0  0  0  0  0  0  0  0  0
   -4.7855    4.3357    0.0000 C   0  0  0  0  0  0  0  0  0  0  0  0
   -5.5355    5.6348    0.0000 C   0  0  0  0  0  0  0  0  0  0  0  0
   -7.0355    5.6348    0.0000 C   0  0  0  0  0  0  0  0  0  0  0  0
   -7.7855    4.3357    0.0000 C   0  0  0  0  0  0  0  0  0  0  0  0
   -9.2855    4.3357    0.0000 C   0  0  0  0  0  0  0  0  0  0  0  0
  -10.0355    3.0367    0.0000 O   0  0  0  0  0  0  0  0  0  0  0  0
  -10.0355    5.6348    0.0000 N   0  0  0  0  0  0  0  0  0  0  0  0
  -11.5355    5.6348    0.0000 C   0  0  0  0  0  0  0  0  0  0  0  0
  -12.2855    6.9338    0.0000 C   0  0  0  0  0  0  0  0  0  0  0  0
  -13.7855    6.9338    0.0000 C   0  0  0  0  0  0  0  0  0  0  0  0
  -14.5355    8.2328    0.0000 C   0  0  0  0  0  0  0  0  0  0  0  0
  -16.0273    8.3896    0.0000 C   0  0  0  0  0  0  0  0  0  0  0  0
  -16.3391    9.8569    0.0000 C   0  0  0  0  0  0  0  0  0  0  0  0
  -15.0401   10.6069    0.0000 C   0  0  0  0  0  0  0  0  0  0  0  0
  -13.9254    9.6032    0.0000 S   0  0  0  0  0  0  0  0  0  0  0  0
  -14.5355    5.6348    0.0000 C   0  0  0  0  0  0  0  0  0  0  0  0
  -13.7855    4.3357    0.0000 C   0  0  0  0  0  0  0  0  0  0  0  0
  -12.2855    4.3357    0.0000 C   0  0  0  0  0  0  0  0  0  0  0  0
  -11.5355    3.0367    0.0000 N   0  0  0  0  0  0  0  0  0  0  0  0
   -7.0355    3.0367    0.0000 C   0  0  0  0  0  0  0  0  0  0  0  0
   -5.5355    3.0367    0.0000 C   0  0  0  0  0  0  0  0  0  0  0  0
   -0.3846    4.3881    0.0000 C   0  0  0  0  0  0  0  0  0  0  0  0
    1.0777    4.7219    0.0000 C   0  0  0  0  0  0  0  0  0  0  0  0
  1  2  1  0
  2  3  1  0
  3  4  2  0
  4  5  1  0
  5  6  2  0
  6  7  1  0
  7  8  1  0
  8  9  1  0
  7 10  2  0
 10 11  1  0
 11 12  1  0
  6 13  1  0
 13 14  2  0
 14 15  1  0
 15 16  2  0
 16 17  1  0
 17 18  1  0
 16 19  1  0
 19 20  2  0
 19 21  1  0
 21 22  2  0
 22 23  1  0
 23 24  1  0
 24 25  1  0
 25 26  2  0
 25 27  1  0
 27 28  2  0
 28 29  1  0
 29 30  2  0
 30 31  1  0
 31 32  2  0
 31 33  1  0
 33 34  1  0
 34 35  2  0
 35 36  1  0
 36 37  1  0
 37 38  2  0
 38 39  1  0
 39 40  2  0
 40 41  1  0
 36 42  2  0
 42 43  1  0
 43 44  2  0
 44 45  1  0
 30 46  1  0
 46 47  2  0
 23 48  1  0
 48 49  1  0
 10  3  1  0
 22 13  1  0
 47 27  1  0
 49  5  1  0
 44 34  1  0
 41 37  1  0
M  END
>  <molecule_chembl_id>  (644) 
CHEMBL3417210

>  <canonical_smiles>  (644) 
COc1cc2c(c(OC)c1OC)-c1ccc(OC)c(=O)cc1C(NC(=O)c1ccc(C(=O)Nc3cc(-c4cccs4)ccc3N)cc1)CC2

>  <pchembl_value_mean>  (644) 
6.42

>  <document_chembl_id>  (644) 
CHEMBL3414494

$$$$

     RDKit          2D

 49 51  0  0  0  0  0  0  0  0999 V2000
   12.1339   -5.1962    0.0000 C   0  0  0  0  0  0  0  0  0  0  0  0
   11.3839   -3.8971    0.0000 C   0  0  0  0  0  0  0  0  0  0  0  0
    9.8839   -3.8971    0.0000 C   0  0  0  0  0  0  0  0  0  0  0  0
    9.1339   -5.1962    0.0000 O   0  0  0  0  0  0  0  0  0  0  0  0
    9.1339   -2.5981    0.0000 C   0  0  0  0  0  0  0  0  0  0  0  0
    7.6339   -2.5981    0.0000 C   0  0  0  0  0  0  0  0  0  0  0  0
    6.8839   -1.2990    0.0000 C   0  0  0  0  0  0  0  0  0  0  0  0
    5.3839   -1.2990    0.0000 C   0  0  0  0  0  0  0  0  0  0  0  0
    4.6339    0.0000    0.0000 C   0  0  0  0  0  0  0  0  0  0  0  0
    3.1339    0.0000    0.0000 C   0  0  0  0  0  0  0  0  0  0  0  0
    2.7750    1.4564    0.0000 N   0  0  0  0  0  0  0  0  0  0  0  0
    1.7803    2.5792    0.0000 C   0  0  0  0  0  0  0  0  0  0  0  0
    2.6324    3.8137    0.0000 O   0  0  0  0  0  0  0  0  0  0  0  0
    0.3778    3.1111    0.0000 C   0  0  0  0  0  0  0  0  0  0  0  0
    0.5586    4.6001    0.0000 C   0  0  0  0  0  0  0  0  0  0  0  0
    1.9385    5.1881    0.0000 C   0  0  0  0  0  0  0  0  0  0  0  0
    2.1193    6.6772    0.0000 C   0  0  0  0  0  0  0  0  0  0  0  0
    3.4993    7.2651    0.0000 C   0  0  0  0  0  0  0  0  0  0  0  0
    3.6801    8.7542    0.0000 N   0  0  0  0  0  0  0  0  0  0  0  0
    5.0601    9.3421    0.0000 C   0  0  0  0  0  0  0  0  0  0  0  0
    5.2409   10.8312    0.0000 C   0  0  0  0  0  0  0  0  0  0  0  0
    6.2592    8.4410    0.0000 O   0  0  0  0  0  0  0  0  0  0  0  0
   -1.1113    2.9303    0.0000 N   0  0  0  0  0  0  0  0  0  0  0  0
   -2.3458    2.0782    0.0000 C   0  0  0  0  0  0  0  0  0  0  0  0
   -3.4686    3.0729    0.0000 O   0  0  0  0  0  0  0  0  0  0  0  0
   -3.0429    0.7500    0.0000 C   0  0  0  0  0  0  0  0  0  0  0  0
   -3.0429   -0.7500    0.0000 C   0  0  0  0  0  0  0  0  0  0  0  0
   -2.3458   -2.0782    0.0000 N   0  0  0  0  0  0  0  0  0  0  0  0
   -3.4686   -3.0729    0.0000 C   0  0  0  0  0  0  0  0  0  0  0  0
   -4.8914   -2.5979    0.0000 C   0  0  0  0  0  0  0  0  0  0  0  0
   -6.0141   -3.5926    0.0000 C   0  0  0  0  0  0  0  0  0  0  0  0
   -5.1914   -1.1282    0.0000 C   0  0  0  0  0  0  0  0  0  0  0  0
   -1.1113   -2.9303    0.0000 C   0  0  0  0  0  0  0  0  0  0  0  0
   -1.6432   -4.3328    0.0000 O   0  0  0  0  0  0  0  0  0  0  0  0
    0.3778   -3.1111    0.0000 C   0  0  0  0  0  0  0  0  0  0  0  0
    1.7803   -2.5792    0.0000 N   0  0  0  0  0  0  0  0  0  0  0  0
    2.6324   -3.8137    0.0000 C   0  0  0  0  0  0  0  0  0  0  0  0
    1.9893   -5.1688    0.0000 C   0  0  0  0  0  0  0  0  0  0  0  0
    2.8414   -6.4033    0.0000 C   0  0  0  0  0  0  0  0  0  0  0  0
    4.3410   -6.4396    0.0000 C   0  0  0  0  0  0  0  0  0  0  0  0
    4.7699   -7.8769    0.0000 N   0  0  0  0  0  0  0  0  0  0  0  0
    3.5354   -8.7290    0.0000 C   0  0  0  0  0  0  0  0  0  0  0  0
    3.3426  -10.2166    0.0000 C   0  0  0  0  0  0  0  0  0  0  0  0
    1.9580  -10.7934    0.0000 C   0  0  0  0  0  0  0  0  0  0  0  0
    0.7661   -9.8826    0.0000 C   0  0  0  0  0  0  0  0  0  0  0  0
    0.9589   -8.3951    0.0000 C   0  0  0  0  0  0  0  0  0  0  0  0
    2.3436   -7.8183    0.0000 C   0  0  0  0  0  0  0  0  0  0  0  0
    2.7750   -1.4564    0.0000 C   0  0  0  0  0  0  0  0  0  0  0  0
    4.1031   -2.1535    0.0000 O   0  0  0  0  0  0  0  0  0  0  0  0
  1  2  1  0
  2  3  1  0
  3  4  2  0
  3  5  1  0
  5  6  1  0
  6  7  1  0
  7  8  1  0
  8  9  1  0
  9 10  1  0
 10 11  1  0
 11 12  1  0
 12 13  2  0
 12 14  1  0
 14 15  1  0
 15 16  1  0
 16 17  1  0
 17 18  1  0
 18 19  1  0
 19 20  1  0
 20 21  1  0
 20 22  2  0
 14 23  1  0
 23 24  1  0
 24 25  2  0
 24 26  1  0
 26 27  1  0
 27 28  1  0
 28 29  1  0
 29 30  1  0
 30 31  1  0
 30 32  1  0
 28 33  1  0
 33 34  2  0
 33 35  1  0
 35 36  1  0
 36 37  1  0
 37 38  1  0
 38 39  1  0
 39 40  2  0
 40 41  1  0
 41 42  1  0
 42 43  2  0
 43 44  1  0
 44 45  2  0
 45 46  1  0
 46 47  2  0
 36 48  1  0
 48 49  2  0
 48 10  1  0
 47 39  1  0
 47 42  1  0
M  END
>  <molecule_chembl_id>  (645) 
CHEMBL2170018

>  <canonical_smiles>  (645) 
CCC(=O)CCCCCC1NC(=O)C(CCCCNC(C)=O)NC(=O)CCN(CC(C)C)C(=O)CN(CCc2c[nH]c3ccccc23)C1=O

>  <pchembl_value_mean>  (645) 
6.43

>  <document_chembl_id>  (645) 
CHEMBL2169795

$$$$

     RDKit          2D

 37 40  0  0  0  0  0  0  0  0999 V2000
   14.7990   -8.5442    0.0000 C   0  0  0  0  0  0  0  0  0  0  0  0
   13.2990   -8.5442    0.0000 C   0  0  0  0  0  0  0  0  0  0  0  0
   12.5490   -7.2452    0.0000 C   0  0  0  0  0  0  0  0  0  0  0  0
   13.2990   -5.9462    0.0000 O   0  0  0  0  0  0  0  0  0  0  0  0
   11.0490   -7.2452    0.0000 C   0  0  0  0  0  0  0  0  0  0  0  0
   10.2990   -5.9462    0.0000 C   0  0  0  0  0  0  0  0  0  0  0  0
    8.7990   -5.9462    0.0000 C   0  0  0  0  0  0  0  0  0  0  0  0
    8.0490   -4.6471    0.0000 C   0  0  0  0  0  0  0  0  0  0  0  0
    6.5490   -4.6471    0.0000 C   0  0  0  0  0  0  0  0  0  0  0  0
    5.7990   -3.3481    0.0000 C   0  0  0  0  0  0  0  0  0  0  0  0
    4.2990   -3.3481    0.0000 N   0  0  0  0  0  0  0  0  0  0  0  0
    3.5490   -2.0490    0.0000 C   0  0  0  0  0  0  0  0  0  0  0  0
    4.2990   -0.7500    0.0000 O   0  0  0  0  0  0  0  0  0  0  0  0
    2.0490   -2.0490    0.0000 C   0  0  0  0  0  0  0  0  0  0  0  0
    0.7500   -2.7990    0.0000 C   0  0  0  0  0  0  0  0  0  0  0  0
    0.7500   -1.2990    0.0000 C   0  0  0  0  0  0  0  0  0  0  0  0
    1.5000    0.0000    0.0000 C   0  0  0  0  0  0  0  0  0  0  0  0
    0.7500    1.2990    0.0000 C   0  0  0  0  0  0  0  0  0  0  0  0
   -0.7500    1.2990    0.0000 N   0  0  0  0  0  0  0  0  0  0  0  0
   -1.5000    2.5981    0.0000 C   0  0  0  0  0  0  0  0  0  0  0  0
   -0.7500    3.8971    0.0000 C   0  0  0  0  0  0  0  0  0  0  0  0
   -1.5000    0.0000    0.0000 C   0  0  0  0  0  0  0  0  0  0  0  0
   -0.7500   -1.2990    0.0000 C   0  0  0  0  0  0  0  0  0  0  0  0
    6.5490   -2.0490    0.0000 C   0  0  0  0  0  0  0  0  0  0  0  0
    5.9389   -0.6787    0.0000 N   0  0  0  0  0  0  0  0  0  0  0  0
    7.0537    0.3250    0.0000 C   0  0  0  0  0  0  0  0  0  0  0  0
    8.3527   -0.4250    0.0000 C   0  0  0  0  0  0  0  0  0  0  0  0
    9.7230    0.1851    0.0000 C   0  0  0  0  0  0  0  0  0  0  0  0
   10.9365   -0.6966    0.0000 C   0  0  0  0  0  0  0  0  0  0  0  0
   10.7797   -2.1884    0.0000 F   0  0  0  0  0  0  0  0  0  0  0  0
   12.3069   -0.0865    0.0000 C   0  0  0  0  0  0  0  0  0  0  0  0
   12.4636    1.4053    0.0000 C   0  0  0  0  0  0  0  0  0  0  0  0
   11.2501    2.2870    0.0000 C   0  0  0  0  0  0  0  0  0  0  0  0
    9.8798    1.6769    0.0000 C   0  0  0  0  0  0  0  0  0  0  0  0
    8.6663    2.5585    0.0000 O   0  0  0  0  0  0  0  0  0  0  0  0
    8.8231    4.0503    0.0000 C   0  0  0  0  0  0  0  0  0  0  0  0
    8.0408   -1.8922    0.0000 N   0  0  0  0  0  0  0  0  0  0  0  0
  1  2  1  0
  2  3  1  0
  3  4  2  0
  3  5  1  0
  5  6  1  0
  6  7  1  0
  7  8  1  0
  8  9  1  0
  9 10  1  0
 10 11  1  0
 11 12  1  0
 12 13  2  0
 12 14  1  0
 14 15  1  0
 15 16  1  0
 16 17  1  0
 17 18  1  0
 18 19  1  0
 19 20  1  0
 20 21  1  0
 19 22  1  0
 22 23  1  0
 10 24  1  0
 24 25  2  0
 25 26  1  0
 26 27  2  0
 27 28  1  0
 28 29  2  0
 29 30  1  0
 29 31  1  0
 31 32  2  0
 32 33  1  0
 33 34  2  0
 34 35  1  0
 35 36  1  0
 27 37  1  0
 16 14  1  0
 37 24  1  0
 23 16  1  0
 34 28  1  0
M  END
>  <molecule_chembl_id>  (646) 
CHEMBL4755945

>  <canonical_smiles>  (646) 
CCC(=O)CCCCCC(NC(=O)C1CC12CCN(CC)CC2)c1ncc(-c2c(F)cccc2OC)[nH]1

>  <pchembl_value_mean>  (646) 
6.43

>  <document_chembl_id>  (646) 
CHEMBL4680369

$$$$

     RDKit          2D

 47 51  0  0  0  0  0  0  0  0999 V2000
    3.0000    0.0000    0.0000 N   0  0  0  0  0  0  0  0  0  0  0  0
    1.5000    0.0000    0.0000 C   0  0  0  0  0  0  0  0  0  0  0  0
    0.7500   -1.2990    0.0000 C   0  0  0  0  0  0  0  0  0  0  0  0
   -0.7500   -1.2990    0.0000 C   0  0  0  0  0  0  0  0  0  0  0  0
   -1.5000    0.0000    0.0000 C   0  0  0  0  0  0  0  0  0  0  0  0
   -0.7500    1.2990    0.0000 C   0  0  0  0  0  0  0  0  0  0  0  0
    0.7500    1.2990    0.0000 C   0  0  0  0  0  0  0  0  0  0  0  0
    1.5000    2.5981    0.0000 N   0  0  0  0  0  0  0  0  0  0  0  0
    0.7500    3.8971    0.0000 C   0  0  0  0  0  0  0  0  0  0  0  0
   -0.7500    3.8971    0.0000 O   0  0  0  0  0  0  0  0  0  0  0  0
    1.5000    5.1962    0.0000 C   0  0  0  0  0  0  0  0  0  0  0  0
    3.0000    5.1962    0.0000 C   0  0  0  0  0  0  0  0  0  0  0  0
    3.7500    6.4952    0.0000 C   0  0  0  0  0  0  0  0  0  0  0  0
    3.0000    7.7942    0.0000 C   0  0  0  0  0  0  0  0  0  0  0  0
    3.7500    9.0933    0.0000 C   0  0  0  0  0  0  0  0  0  0  0  0
    5.2500    9.0933    0.0000 N   0  0  0  0  0  0  0  0  0  0  0  0
    6.0000   10.3923    0.0000 C   0  0  0  0  0  0  0  0  0  0  0  0
    5.2500   11.6913    0.0000 O   0  0  0  0  0  0  0  0  0  0  0  0
    7.5000   10.3923    0.0000 O   0  0  0  0  0  0  0  0  0  0  0  0
    8.2500   11.6913    0.0000 C   0  0  0  0  0  0  0  0  0  0  0  0
    9.7500   11.6913    0.0000 C   0  0  0  0  0  0  0  0  0  0  0  0
   10.5000   10.3923    0.0000 C   0  0  0  0  0  0  0  0  0  0  0  0
   12.0000   10.3923    0.0000 C   0  0  0  0  0  0  0  0  0  0  0  0
   12.7500   11.6913    0.0000 C   0  0  0  0  0  0  0  0  0  0  0  0
   14.2500   11.6913    0.0000 O   0  0  0  0  0  0  0  0  0  0  0  0
   15.0000   10.3923    0.0000 C   0  0  0  0  0  0  0  0  0  0  0  0
   16.5000   10.3923    0.0000 C   0  0  0  0  0  0  0  0  0  0  0  0
   17.2500    9.0933    0.0000 O   0  0  0  0  0  0  0  0  0  0  0  0
   18.7500    9.0933    0.0000 C   0  0  0  0  0  0  0  0  0  0  0  0
   19.6317   10.3068    0.0000 N   0  0  0  0  0  0  0  0  0  0  0  0
   21.0583    9.8433    0.0000 O   0  0  0  0  0  0  0  0  0  0  0  0
   21.0583    8.3433    0.0000 N   0  0  0  0  0  4  0  0  0  0  0  0
   22.2718    7.4616    0.0000 O   0  0  0  0  0  1  0  0  0  0  0  0
   19.6317    7.8797    0.0000 C   0  0  0  0  0  0  0  0  0  0  0  0
   19.1682    6.4532    0.0000 S   0  0  0  0  0  0  0  0  0  0  0  0
   20.5947    5.9896    0.0000 O   0  0  0  0  0  0  0  0  0  0  0  0
   17.7416    6.9167    0.0000 O   0  0  0  0  0  0  0  0  0  0  0  0
   18.7046    5.0266    0.0000 C   0  0  0  0  0  0  0  0  0  0  0  0
   17.2374    4.7147    0.0000 C   0  0  0  0  0  0  0  0  0  0  0  0
   16.7739    3.2881    0.0000 C   0  0  0  0  0  0  0  0  0  0  0  0
   17.7776    2.1734    0.0000 C   0  0  0  0  0  0  0  0  0  0  0  0
   19.2448    2.4853    0.0000 C   0  0  0  0  0  0  0  0  0  0  0  0
   19.7083    3.9119    0.0000 C   0  0  0  0  0  0  0  0  0  0  0  0
   12.0000   12.9904    0.0000 N   0  0  0  0  0  0  0  0  0  0  0  0
   10.5000   12.9904    0.0000 C   0  0  0  0  0  0  0  0  0  0  0  0
    1.5000    7.7942    0.0000 C   0  0  0  0  0  0  0  0  0  0  0  0
    0.7500    6.4952    0.0000 C   0  0  0  0  0  0  0  0  0  0  0  0
  1  2  1  0
  2  3  2  0
  3  4  1  0
  4  5  2  0
  5  6  1  0
  6  7  2  0
  7  8  1  0
  8  9  1  0
  9 10  2  0
  9 11  1  0
 11 12  2  0
 12 13  1  0
 13 14  2  0
 14 15  1  0
 15 16  1  0
 16 17  1  0
 17 18  2  0
 17 19  1  0
 19 20  1  0
 20 21  1  0
 21 22  2  0
 22 23  1  0
 23 24  2  0
 24 25  1  0
 25 26  1  0
 26 27  1  0
 27 28  1  0
 28 29  1  0
 29 30  2  0
 30 31  1  0
 31 32  1  0
 32 33  1  0
 32 34  2  0
 34 35  1  0
 35 36  2  0
 35 37  2  0
 35 38  1  0
 38 39  2  0
 39 40  1  0
 40 41  2  0
 41 42  1  0
 42 43  2  0
 24 44  1  0
 44 45  2  0
 14 46  1  0
 46 47  2  0
  7  2  1  0
 47 11  1  0
 45 21  1  0
 34 29  1  0
 43 38  1  0
M  CHG  2  32   1  33  -1
M  END
>  <molecule_chembl_id>  (647) 
CHEMBL4285001

>  <canonical_smiles>  (647) 
Nc1ccccc1NC(=O)c1ccc(CNC(=O)OCc2ccc(OCCOc3no[n+]([O-])c3S(=O)(=O)c3ccccc3)nc2)cc1

>  <pchembl_value_mean>  (647) 
6.43

>  <document_chembl_id>  (647) 
CHEMBL4251627

$$$$

     RDKit          2D

 28 31  0  0  0  0  0  0  0  0999 V2000
   -7.5000   -2.5981    0.0000 C   0  0  0  0  0  0  0  0  0  0  0  0
   -6.0000   -2.5981    0.0000 N   0  0  0  0  0  0  0  0  0  0  0  0
   -5.2500   -1.2990    0.0000 C   0  0  0  0  0  0  0  0  0  0  0  0
   -3.7500   -1.2990    0.0000 C   0  0  0  0  0  0  0  0  0  0  0  0
   -3.0000   -2.5981    0.0000 N   0  0  0  0  0  0  0  0  0  0  0  0
   -1.5000   -2.5981    0.0000 C   0  0  0  0  0  0  0  0  0  0  0  0
   -0.7500   -3.8971    0.0000 N   0  0  0  0  0  0  0  0  0  0  0  0
    0.7500   -3.8971    0.0000 C   0  0  0  0  0  0  0  0  0  0  0  0
    1.5000   -5.1962    0.0000 C   0  0  0  0  0  0  0  0  0  0  0  0
    0.7500   -6.4952    0.0000 C   0  0  0  0  0  0  0  0  0  0  0  0
    1.5000   -7.7942    0.0000 C   0  0  0  0  0  0  0  0  0  0  0  0
    3.0000   -7.7942    0.0000 C   0  0  0  0  0  0  0  0  0  0  0  0
    3.7500   -9.0933    0.0000 C   0  0  0  0  0  0  0  0  0  0  0  0
    5.2500   -9.0933    0.0000 O   0  0  0  0  0  0  0  0  0  0  0  0
    3.0000  -10.3923    0.0000 N   0  0  0  0  0  0  0  0  0  0  0  0
    3.7500  -11.6913    0.0000 O   0  0  0  0  0  0  0  0  0  0  0  0
    3.7500   -6.4952    0.0000 C   0  0  0  0  0  0  0  0  0  0  0  0
    3.0000   -5.1962    0.0000 C   0  0  0  0  0  0  0  0  0  0  0  0
    1.5000   -2.5981    0.0000 N   0  0  0  0  0  0  0  0  0  0  0  0
    0.7500   -1.2990    0.0000 C   0  0  0  0  0  0  0  0  0  0  0  0
    1.5000    0.0000    0.0000 C   0  0  0  0  0  0  0  0  0  0  0  0
    0.7500    1.2990    0.0000 C   0  0  0  0  0  0  0  0  0  0  0  0
    1.5000    2.5981    0.0000 Cl  0  0  0  0  0  0  0  0  0  0  0  0
   -0.7500    1.2990    0.0000 C   0  0  0  0  0  0  0  0  0  0  0  0
   -1.5000    0.0000    0.0000 C   0  0  0  0  0  0  0  0  0  0  0  0
   -0.7500   -1.2990    0.0000 C   0  0  0  0  0  0  0  0  0  0  0  0
   -3.7500   -3.8971    0.0000 C   0  0  0  0  0  0  0  0  0  0  0  0
   -5.2500   -3.8971    0.0000 C   0  0  0  0  0  0  0  0  0  0  0  0
  1  2  1  0
  2  3  1  0
  3  4  1  0
  4  5  1  0
  5  6  1  0
  6  7  2  0
  7  8  1  0
  8  9  1  0
  9 10  2  0
 10 11  1  0
 11 12  2  0
 12 13  1  0
 13 14  2  0
 13 15  1  0
 15 16  1  0
 12 17  1  0
 17 18  2  0
  8 19  2  0
 19 20  1  0
 20 21  2  0
 21 22  1  0
 22 23  1  0
 22 24  2  0
 24 25  1  0
 25 26  2  0
  5 27  1  0
 27 28  1  0
 28  2  1  0
 26  6  1  0
 18  9  1  0
 26 20  1  0
M  END
>  <molecule_chembl_id>  (648) 
CHEMBL4873811

>  <canonical_smiles>  (648) 
CN1CCN(c2nc(-c3ccc(C(=O)NO)cc3)nc3cc(Cl)ccc23)CC1

>  <pchembl_value_mean>  (648) 
6.43

>  <document_chembl_id>  (648) 
CHEMBL4811304

$$$$

     RDKit          2D

 18 19  0  0  0  0  0  0  0  0999 V2000
    3.0000    0.0000    0.0000 C   0  0  0  0  0  0  0  0  0  0  0  0
    1.5000    0.0000    0.0000 C   0  0  0  0  0  0  0  0  0  0  0  0
    0.7500   -1.2990    0.0000 C   0  0  0  0  0  0  0  0  0  0  0  0
   -0.7500   -1.2990    0.0000 C   0  0  0  0  0  0  0  0  0  0  0  0
   -1.5000   -2.5981    0.0000 N   0  0  0  0  0  0  0  0  0  0  0  0
   -3.0000   -2.5981    0.0000 C   0  0  0  0  0  0  0  0  0  0  0  0
   -3.7500   -1.2990    0.0000 N   0  0  0  0  0  0  0  0  0  0  0  0
   -5.2500   -1.2990    0.0000 C   0  0  0  0  0  0  0  0  0  0  0  0
   -6.0000   -2.5981    0.0000 C   0  0  0  0  0  0  0  0  0  0  0  0
   -7.5000   -2.5981    0.0000 C   0  0  0  0  0  0  0  0  0  0  0  0
   -8.2500   -3.8971    0.0000 O   0  0  0  0  0  0  0  0  0  0  0  0
   -8.2500   -1.2990    0.0000 N   0  0  0  0  0  0  0  0  0  0  0  0
   -9.7500   -1.2990    0.0000 O   0  0  0  0  0  0  0  0  0  0  0  0
   -5.2500   -3.8971    0.0000 C   0  0  0  0  0  0  0  0  0  0  0  0
   -3.7500   -3.8971    0.0000 N   0  0  0  0  0  0  0  0  0  0  0  0
   -1.5000    0.0000    0.0000 C   0  0  0  0  0  0  0  0  0  0  0  0
   -0.7500    1.2990    0.0000 C   0  0  0  0  0  0  0  0  0  0  0  0
    0.7500    1.2990    0.0000 N   0  0  0  0  0  0  0  0  0  0  0  0
  1  2  1  0
  2  3  2  0
  3  4  1  0
  4  5  1  0
  5  6  1  0
  6  7  2  0
  7  8  1  0
  8  9  2  0
  9 10  1  0
 10 11  2  0
 10 12  1  0
 12 13  1  0
  9 14  1  0
 14 15  2  0
  4 16  2  0
 16 17  1  0
 17 18  2  0
 18  2  1  0
 15  6  1  0
M  END
>  <molecule_chembl_id>  (649) 
CHEMBL3655914

>  <canonical_smiles>  (649) 
Cc1cc(Nc2ncc(C(=O)NO)cn2)ccn1

>  <pchembl_value_mean>  (649) 
6.44

>  <document_chembl_id>  (649) 
CHEMBL3639071

$$$$

     RDKit          2D

 29 32  0  0  0  0  0  0  0  0999 V2000
    3.0000    0.0000    0.0000 N   0  0  0  0  0  0  0  0  0  0  0  0
    1.5000    0.0000    0.0000 C   0  0  0  0  0  0  0  0  0  0  0  0
    0.7500   -1.2990    0.0000 C   0  0  0  0  0  0  0  0  0  0  0  0
   -0.7500   -1.2990    0.0000 C   0  0  0  0  0  0  0  0  0  0  0  0
   -1.5000    0.0000    0.0000 C   0  0  0  0  0  0  0  0  0  0  0  0
   -0.7500    1.2990    0.0000 C   0  0  0  0  0  0  0  0  0  0  0  0
    0.7500    1.2990    0.0000 C   0  0  0  0  0  0  0  0  0  0  0  0
    1.5000    2.5981    0.0000 N   0  0  0  0  0  0  0  0  0  0  0  0
    0.7500    3.8971    0.0000 C   0  0  0  0  0  0  0  0  0  0  0  0
   -0.7500    3.8971    0.0000 O   0  0  0  0  0  0  0  0  0  0  0  0
    1.5000    5.1962    0.0000 C   0  0  0  0  0  0  0  0  0  0  0  0
    3.0000    5.1962    0.0000 C   0  0  0  0  0  0  0  0  0  0  0  0
    3.7500    6.4952    0.0000 C   0  0  0  0  0  0  0  0  0  0  0  0
    3.0000    7.7942    0.0000 C   0  0  0  0  0  0  0  0  0  0  0  0
    3.7500    9.0933    0.0000 C   0  0  0  0  0  0  0  0  0  0  0  0
    5.2500    9.0933    0.0000 S   0  0  0  0  0  0  0  0  0  0  0  0
    6.0000   10.3923    0.0000 C   0  0  0  0  0  0  0  0  0  0  0  0
    5.3899   11.7626    0.0000 N   0  0  0  0  0  0  0  0  0  0  0  0
    6.5046   12.7663    0.0000 C   0  0  0  0  0  0  0  0  0  0  0  0
    6.3478   14.2581    0.0000 C   0  0  0  0  0  0  0  0  0  0  0  0
    7.5613   15.1398    0.0000 C   0  0  0  0  0  0  0  0  0  0  0  0
    7.4046   16.6316    0.0000 C   0  0  0  0  0  0  0  0  0  0  0  0
    6.0342   17.2417    0.0000 C   0  0  0  0  0  0  0  0  0  0  0  0
    4.8207   16.3600    0.0000 C   0  0  0  0  0  0  0  0  0  0  0  0
    4.9775   14.8682    0.0000 C   0  0  0  0  0  0  0  0  0  0  0  0
    7.8037   12.0163    0.0000 C   0  0  0  0  0  0  0  0  0  0  0  0
    7.4918   10.5491    0.0000 O   0  0  0  0  0  0  0  0  0  0  0  0
    1.5000    7.7942    0.0000 C   0  0  0  0  0  0  0  0  0  0  0  0
    0.7500    6.4952    0.0000 C   0  0  0  0  0  0  0  0  0  0  0  0
  1  2  1  0
  2  3  2  0
  3  4  1  0
  4  5  2  0
  5  6  1  0
  6  7  2  0
  7  8  1  0
  8  9  1  0
  9 10  2  0
  9 11  1  0
 11 12  2  0
 12 13  1  0
 13 14  2  0
 14 15  1  0
 15 16  1  0
 16 17  1  0
 17 18  2  0
 18 19  1  0
 19 20  1  0
 20 21  2  0
 21 22  1  0
 22 23  2  0
 23 24  1  0
 24 25  2  0
 19 26  1  0
 26 27  1  0
 14 28  1  0
 28 29  2  0
  7  2  1  0
 29 11  1  0
 27 17  1  0
 25 20  1  0
M  END
>  <molecule_chembl_id>  (650) 
CHEMBL3605417

>  <canonical_smiles>  (650) 
Nc1ccccc1NC(=O)c1ccc(CSC2=NC(c3ccccc3)CO2)cc1

>  <pchembl_value_mean>  (650) 
6.44

>  <document_chembl_id>  (650) 
CHEMBL3603817

$$$$

     RDKit          2D

 17 18  0  0  0  0  0  0  0  0999 V2000
    3.7500    1.2990    0.0000 O   0  0  0  0  0  0  0  0  0  0  0  0
    3.0000    0.0000    0.0000 C   0  0  0  0  0  0  0  0  0  0  0  0
    3.7500   -1.2990    0.0000 N   0  0  0  0  0  0  0  0  0  0  0  0
    5.2500   -1.2990    0.0000 O   0  0  0  0  0  0  0  0  0  0  0  0
    1.5000    0.0000    0.0000 C   0  0  0  0  0  0  0  0  0  0  0  0
    0.7500   -1.2990    0.0000 C   0  0  0  0  0  0  0  0  0  0  0  0
   -0.7500   -1.2990    0.0000 N   0  0  0  0  0  0  0  0  0  0  0  0
   -1.5000    0.0000    0.0000 C   0  0  0  0  0  0  0  0  0  0  0  0
   -3.0000    0.0000    0.0000 N   0  0  0  0  0  0  0  0  0  0  0  0
   -3.7500    1.2990    0.0000 C   0  0  0  0  0  0  0  0  0  0  0  0
   -5.2500    1.2990    0.0000 C   0  0  0  0  0  0  0  0  0  0  0  0
   -6.1317    0.0855    0.0000 C   0  0  0  0  0  0  0  0  0  0  0  0
   -7.5583    0.5490    0.0000 C   0  0  0  0  0  0  0  0  0  0  0  0
   -7.5583    2.0490    0.0000 C   0  0  0  0  0  0  0  0  0  0  0  0
   -6.1317    2.5126    0.0000 S   0  0  0  0  0  0  0  0  0  0  0  0
   -0.7500    1.2990    0.0000 N   0  0  0  0  0  0  0  0  0  0  0  0
    0.7500    1.2990    0.0000 C   0  0  0  0  0  0  0  0  0  0  0  0
  1  2  2  0
  2  3  1  0
  3  4  1  0
  2  5  1  0
  5  6  2  0
  6  7  1  0
  7  8  2  0
  8  9  1  0
  9 10  1  0
 10 11  1  0
 11 12  2  0
 12 13  1  0
 13 14  2  0
 14 15  1  0
  8 16  1  0
 16 17  2  0
 17  5  1  0
 15 11  1  0
M  END
>  <molecule_chembl_id>  (651) 
CHEMBL3655982

>  <canonical_smiles>  (651) 
O=C(NO)c1cnc(NCc2cccs2)nc1

>  <pchembl_value_mean>  (651) 
6.44

>  <document_chembl_id>  (651) 
CHEMBL3639071

$$$$

     RDKit          2D

 33 36  0  0  0  0  0  0  0  0999 V2000
    3.7500    1.2990    0.0000 O   0  0  0  0  0  0  0  0  0  0  0  0
    3.0000    0.0000    0.0000 C   0  0  0  0  0  0  0  0  0  0  0  0
    3.7500   -1.2990    0.0000 N   0  0  0  0  0  0  0  0  0  0  0  0
    5.2500   -1.2990    0.0000 O   0  0  0  0  0  0  0  0  0  0  0  0
    1.5000    0.0000    0.0000 C   0  0  0  0  0  0  0  0  0  0  0  0
    0.7500   -1.2990    0.0000 C   0  0  0  0  0  0  0  0  0  0  0  0
   -0.7500   -1.2990    0.0000 C   0  0  0  0  0  0  0  0  0  0  0  0
   -1.5000    0.0000    0.0000 C   0  0  0  0  0  0  0  0  0  0  0  0
   -3.0000    0.0000    0.0000 C   0  0  0  0  0  0  0  0  0  0  0  0
   -3.7500    1.2990    0.0000 N   0  0  0  0  0  0  0  0  0  0  0  0
   -5.2500    1.2990    0.0000 C   0  0  0  0  0  0  0  0  0  0  0  0
   -6.0000    0.0000    0.0000 O   0  0  0  0  0  0  0  0  0  0  0  0
   -6.0000    2.5981    0.0000 C   0  0  0  0  0  0  0  0  0  0  0  0
   -7.4918    2.7549    0.0000 N   0  0  0  0  0  0  0  0  0  0  0  0
   -7.8037    4.2221    0.0000 C   0  0  0  0  0  0  0  0  0  0  0  0
   -9.1740    4.8322    0.0000 C   0  0  0  0  0  0  0  0  0  0  0  0
   -9.3308    6.3240    0.0000 C   0  0  0  0  0  0  0  0  0  0  0  0
  -10.7011    6.9341    0.0000 C   0  0  0  0  0  0  0  0  0  0  0  0
  -11.9146    6.0524    0.0000 C   0  0  0  0  0  0  0  0  0  0  0  0
  -11.7578    4.5606    0.0000 C   0  0  0  0  0  0  0  0  0  0  0  0
  -10.3875    3.9505    0.0000 C   0  0  0  0  0  0  0  0  0  0  0  0
   -6.5046    4.9721    0.0000 C   0  0  0  0  0  0  0  0  0  0  0  0
   -5.3899    3.9684    0.0000 C   0  0  0  0  0  0  0  0  0  0  0  0
   -3.9227    4.2803    0.0000 C   0  0  0  0  0  0  0  0  0  0  0  0
   -2.9190    3.1655    0.0000 C   0  0  0  0  0  0  0  0  0  0  0  0
   -1.4518    3.4774    0.0000 C   0  0  0  0  0  0  0  0  0  0  0  0
   -0.9882    4.9040    0.0000 C   0  0  0  0  0  0  0  0  0  0  0  0
    0.4790    5.2159    0.0000 F   0  0  0  0  0  0  0  0  0  0  0  0
   -1.9919    6.0187    0.0000 C   0  0  0  0  0  0  0  0  0  0  0  0
   -1.5284    7.4453    0.0000 F   0  0  0  0  0  0  0  0  0  0  0  0
   -3.4591    5.7068    0.0000 C   0  0  0  0  0  0  0  0  0  0  0  0
   -0.7500    1.2990    0.0000 C   0  0  0  0  0  0  0  0  0  0  0  0
    0.7500    1.2990    0.0000 C   0  0  0  0  0  0  0  0  0  0  0  0
  1  2  2  0
  2  3  1  0
  3  4  1  0
  2  5  1  0
  5  6  2  0
  6  7  1  0
  7  8  2  0
  8  9  1  0
  9 10  1  0
 10 11  1  0
 11 12  2  0
 11 13  1  0
 13 14  1  0
 14 15  1  0
 15 16  1  0
 16 17  2  0
 17 18  1  0
 18 19  2  0
 19 20  1  0
 20 21  2  0
 15 22  2  0
 22 23  1  0
 23 24  1  0
 24 25  2  0
 25 26  1  0
 26 27  2  0
 27 28  1  0
 27 29  1  0
 29 30  1  0
 29 31  2  0
  8 32  1  0
 32 33  2  0
 33  5  1  0
 23 13  2  0
 31 24  1  0
 21 16  1  0
M  END
>  <molecule_chembl_id>  (652) 
CHEMBL3670676

>  <canonical_smiles>  (652) 
O=C(NO)c1ccc(CNC(=O)c2[nH]c(-c3ccccc3)cc2-c2ccc(F)c(F)c2)cc1

>  <pchembl_value_mean>  (652) 
6.44

>  <document_chembl_id>  (652) 
CHEMBL3638813

$$$$

     RDKit          2D

 21 23  0  0  0  0  0  0  0  0999 V2000
    3.0000    0.0000    0.0000 N   0  0  0  0  0  0  0  0  0  0  0  0
    1.5000    0.0000    0.0000 C   0  0  0  0  0  0  0  0  0  0  0  0
    0.7500   -1.2990    0.0000 C   0  0  0  0  0  0  0  0  0  0  0  0
   -0.7500   -1.2990    0.0000 C   0  0  0  0  0  0  0  0  0  0  0  0
   -1.5000    0.0000    0.0000 C   0  0  0  0  0  0  0  0  0  0  0  0
   -3.0000    0.0000    0.0000 C   0  0  0  0  0  0  0  0  0  0  0  0
   -3.8817   -1.2135    0.0000 C   0  0  0  0  0  0  0  0  0  0  0  0
   -5.3083   -0.7500    0.0000 C   0  0  0  0  0  0  0  0  0  0  0  0
   -5.3083    0.7500    0.0000 C   0  0  0  0  0  0  0  0  0  0  0  0
   -3.8817    1.2135    0.0000 S   0  0  0  0  0  0  0  0  0  0  0  0
   -0.7500    1.2990    0.0000 C   0  0  0  0  0  0  0  0  0  0  0  0
    0.7500    1.2990    0.0000 C   0  0  0  0  0  0  0  0  0  0  0  0
    1.5000    2.5981    0.0000 N   0  0  0  0  0  0  0  0  0  0  0  0
    0.7500    3.8971    0.0000 C   0  0  0  0  0  0  0  0  0  0  0  0
   -0.7500    3.8971    0.0000 O   0  0  0  0  0  0  0  0  0  0  0  0
    1.5000    5.1962    0.0000 C   0  0  0  0  0  0  0  0  0  0  0  0
    3.0000    5.1962    0.0000 C   0  0  0  0  0  0  0  0  0  0  0  0
    3.7500    6.4952    0.0000 C   0  0  0  0  0  0  0  0  0  0  0  0
    3.0000    7.7942    0.0000 C   0  0  0  0  0  0  0  0  0  0  0  0
    1.5000    7.7942    0.0000 C   0  0  0  0  0  0  0  0  0  0  0  0
    0.7500    6.4952    0.0000 C   0  0  0  0  0  0  0  0  0  0  0  0
  1  2  1  0
  2  3  2  0
  3  4  1  0
  4  5  2  0
  5  6  1  0
  6  7  2  0
  7  8  1  0
  8  9  2  0
  9 10  1  0
  5 11  1  0
 11 12  2  0
 12 13  1  0
 13 14  1  0
 14 15  2  0
 14 16  1  0
 16 17  2  0
 17 18  1  0
 18 19  2  0
 19 20  1  0
 20 21  2  0
 12  2  1  0
 21 16  1  0
 10  6  1  0
M  END
>  <molecule_chembl_id>  (653) 
CHEMBL271949

>  <canonical_smiles>  (653) 
Nc1ccc(-c2cccs2)cc1NC(=O)c1ccccc1

>  <pchembl_value_mean>  (653) 
6.44

>  <document_chembl_id>  (653) 
CHEMBL1143185

$$$$

     RDKit          2D

 26 28  0  0  0  0  0  0  0  0999 V2000
    6.2011   -6.9341    0.0000 C   0  0  0  0  0  0  0  0  0  0  0  0
    4.8308   -6.3240    0.0000 C   0  0  0  0  0  0  0  0  0  0  0  0
    4.6740   -4.8322    0.0000 C   0  0  0  0  0  0  0  0  0  0  0  0
    3.3037   -4.2221    0.0000 C   0  0  0  0  0  0  0  0  0  0  0  0
    2.9918   -2.7549    0.0000 C   0  0  0  0  0  0  0  0  0  0  0  0
    1.5000   -2.5981    0.0000 C   0  0  0  0  0  0  0  0  0  0  0  0
    0.7500   -1.2990    0.0000 C   0  0  0  0  0  0  0  0  0  0  0  0
    1.5000    0.0000    0.0000 C   0  0  0  0  0  0  0  0  0  0  0  0
    0.7500    1.2990    0.0000 C   0  0  0  0  0  0  0  0  0  0  0  0
   -0.7500    1.2990    0.0000 C   0  0  0  0  0  0  0  0  0  0  0  0
   -1.5000    2.5981    0.0000 F   0  0  0  0  0  0  0  0  0  0  0  0
   -1.5000    0.0000    0.0000 C   0  0  0  0  0  0  0  0  0  0  0  0
   -0.7500   -1.2990    0.0000 C   0  0  0  0  0  0  0  0  0  0  0  0
    0.8899   -3.9684    0.0000 N   0  0  0  0  0  0  0  0  0  0  0  0
    2.0046   -4.9721    0.0000 N   0  0  0  0  0  0  0  0  0  0  0  0
    1.8478   -6.4639    0.0000 C   0  0  0  0  0  0  0  0  0  0  0  0
    0.4775   -7.0740    0.0000 C   0  0  0  0  0  0  0  0  0  0  0  0
   -0.7360   -6.1923    0.0000 C   0  0  0  0  0  0  0  0  0  0  0  0
   -2.1063   -6.8024    0.0000 C   0  0  0  0  0  0  0  0  0  0  0  0
   -2.2631   -8.2942    0.0000 C   0  0  0  0  0  0  0  0  0  0  0  0
   -3.6335   -8.9043    0.0000 C   0  0  0  0  0  0  0  0  0  0  0  0
   -3.7902  -10.3961    0.0000 O   0  0  0  0  0  0  0  0  0  0  0  0
   -4.8470   -8.0226    0.0000 N   0  0  0  0  0  0  0  0  0  0  0  0
   -6.2173   -8.6327    0.0000 O   0  0  0  0  0  0  0  0  0  0  0  0
   -1.0496   -9.1759    0.0000 C   0  0  0  0  0  0  0  0  0  0  0  0
    0.3207   -8.5658    0.0000 C   0  0  0  0  0  0  0  0  0  0  0  0
  1  2  1  0
  2  3  1  0
  3  4  1  0
  4  5  2  0
  5  6  1  0
  6  7  1  0
  7  8  2  0
  8  9  1  0
  9 10  2  0
 10 11  1  0
 10 12  1  0
 12 13  2  0
  6 14  2  0
 14 15  1  0
 15 16  1  0
 16 17  1  0
 17 18  2  0
 18 19  1  0
 19 20  2  0
 20 21  1  0
 21 22  2  0
 21 23  1  0
 23 24  1  0
 20 25  1  0
 25 26  2  0
 15  4  1  0
 26 17  1  0
 13  7  1  0
M  END
>  <molecule_chembl_id>  (654) 
CHEMBL4228210

>  <canonical_smiles>  (654) 
CCCc1cc(-c2ccc(F)cc2)nn1Cc1ccc(C(=O)NO)cc1

>  <pchembl_value_mean>  (654) 
6.44

>  <document_chembl_id>  (654) 
CHEMBL4219109

$$$$

     RDKit          2D

 42 46  0  0  0  0  0  0  0  0999 V2000
  -15.9965    3.9635    0.0000 C   0  0  0  0  0  0  0  0  0  0  0  0
  -14.4967    3.9394    0.0000 C   0  0  0  0  0  0  0  0  0  0  0  0
  -13.7677    2.6284    0.0000 C   0  0  0  0  0  0  0  0  0  0  0  0
  -14.5385    1.3416    0.0000 O   0  0  0  0  0  0  0  0  0  0  0  0
  -12.2679    2.6042    0.0000 C   0  0  0  0  0  0  0  0  0  0  0  0
  -11.5389    1.2933    0.0000 C   0  0  0  0  0  0  0  0  0  0  0  0
  -10.0391    1.2691    0.0000 C   0  0  0  0  0  0  0  0  0  0  0  0
   -9.3101   -0.0418    0.0000 C   0  0  0  0  0  0  0  0  0  0  0  0
   -7.8103   -0.0660    0.0000 C   0  0  0  0  0  0  0  0  0  0  0  0
   -7.0814   -1.3769    0.0000 C   0  0  0  0  0  0  0  0  0  0  0  0
   -7.8522   -2.6637    0.0000 N   0  0  0  0  0  0  0  0  0  0  0  0
   -9.3520   -2.6396    0.0000 C   0  0  0  0  0  0  0  0  0  0  0  0
  -10.0810   -1.3286    0.0000 O   0  0  0  0  0  0  0  0  0  0  0  0
  -10.1228   -3.9263    0.0000 C   0  0  0  0  0  0  0  0  0  0  0  0
  -10.1470   -5.4262    0.0000 C   0  0  0  0  0  0  0  0  0  0  0  0
  -11.4338   -4.6553    0.0000 C   0  0  0  0  0  0  0  0  0  0  0  0
  -12.1628   -3.3444    0.0000 C   0  0  0  0  0  0  0  0  0  0  0  0
  -13.6626   -3.3202    0.0000 C   0  0  0  0  0  0  0  0  0  0  0  0
  -14.4334   -4.6070    0.0000 N   0  0  0  0  0  0  0  0  0  0  0  0
  -15.9332   -4.5828    0.0000 C   0  0  0  0  0  0  0  0  0  0  0  0
  -16.6622   -3.2719    0.0000 C   0  0  0  0  0  0  0  0  0  0  0  0
  -13.7044   -5.9179    0.0000 C   0  0  0  0  0  0  0  0  0  0  0  0
  -12.2046   -5.9421    0.0000 C   0  0  0  0  0  0  0  0  0  0  0  0
   -5.5816   -1.4011    0.0000 C   0  0  0  0  0  0  0  0  0  0  0  0
   -4.6804   -0.2019    0.0000 N   0  0  0  0  0  0  0  0  0  0  0  0
   -2.9697   -0.3000    0.0000 C   0  0  0  0  0  0  0  0  0  0  0  0
   -4.1316   -1.2487    0.0000 N   0  0  0  0  0  0  0  0  0  0  0  0
   -4.7195   -2.6287    0.0000 C   0  0  0  0  0  0  0  0  0  0  0  0
   -4.5988   -4.1238    0.0000 C   0  0  0  0  0  0  0  0  0  0  0  0
   -6.0216   -4.5988    0.0000 O   0  0  0  0  0  0  0  0  0  0  0  0
   -3.7971   -5.3916    0.0000 N   0  0  0  0  0  0  0  0  0  0  0  0
   -2.4981   -6.1416    0.0000 C   0  0  0  0  0  0  0  0  0  0  0  0
   -0.9993   -6.2020    0.0000 C   0  0  0  0  0  0  0  0  0  0  0  0
    0.3559   -5.5590    0.0000 C   0  0  0  0  0  0  0  0  0  0  0  0
    1.2570   -4.3598    0.0000 C   0  0  0  0  0  0  0  0  0  0  0  0
    1.4976   -2.8792    0.0000 C   0  0  0  0  0  0  0  0  0  0  0  0
    0.7500   -1.2990    0.0000 C   0  0  0  0  0  0  0  0  0  0  0  0
    1.5000    0.0000    0.0000 C   0  0  0  0  0  0  0  0  0  0  0  0
    0.7500    1.2990    0.0000 C   0  0  0  0  0  0  0  0  0  0  0  0
   -0.7500    1.2990    0.0000 C   0  0  0  0  0  0  0  0  0  0  0  0
   -1.5000    0.0000    0.0000 C   0  0  0  0  0  0  0  0  0  0  0  0
   -0.7500   -1.2990    0.0000 C   0  0  0  0  0  0  0  0  0  0  0  0
  1  2  1  0
  2  3  1  0
  3  4  2  0
  3  5  1  0
  5  6  1  0
  6  7  1  0
  7  8  1  0
  8  9  1  0
  9 10  1  0
 10 11  1  0
 11 12  1  0
 12 13  2  0
 12 14  1  0
 14 15  1  0
 15 16  1  0
 16 17  1  0
 17 18  1  0
 18 19  1  0
 19 20  1  0
 20 21  1  0
 19 22  1  0
 22 23  1  0
 10 24  1  0
 24 25  1  0
 25 26  1  0
 26 27  2  0
 27 28  1  0
 28 29  1  0
 29 30  2  0
 29 31  1  0
 31 32  1  0
 32 33  1  0
 33 34  1  0
 34 35  1  0
 35 36  2  0
 36 37  1  0
 37 38  1  0
 38 39  2  0
 39 40  1  0
 40 41  2  0
 41 42  1  0
 16 14  1  0
 28 24  2  0
 42 37  2  0
 23 16  1  0
 41 26  1  0
M  END
>  <molecule_chembl_id>  (655) 
CHEMBL4852075

>  <canonical_smiles>  (655) 
CCC(=O)CCCCCC(NC(=O)C1CC12CCN(CC)CC2)c1[nH]c2nc1C(=O)NCCCC=Cc1cccc-2c1

>  <pchembl_value_mean>  (655) 
6.445

>  <document_chembl_id>  (655) 
CHEMBL4811291

$$$$

     RDKit          2D

 25 26  0  0  0  0  0  0  0  0999 V2000
   -5.3120   -0.6406    0.0000 C   0  0  0  0  0  0  0  0  0  0  0  0
   -5.0002    0.8266    0.0000 N   0  0  0  0  0  0  0  0  0  0  0  0
   -6.1149    1.8303    0.0000 C   0  0  0  0  0  0  0  0  0  0  0  0
   -3.5736    1.2902    0.0000 S   0  0  0  0  0  0  0  0  0  0  0  0
   -4.0371    2.7168    0.0000 O   0  0  0  0  0  0  0  0  0  0  0  0
   -3.1101   -0.1364    0.0000 O   0  0  0  0  0  0  0  0  0  0  0  0
   -2.1470    1.7537    0.0000 C   0  0  0  0  0  0  0  0  0  0  0  0
   -1.8351    3.2209    0.0000 C   0  0  0  0  0  0  0  0  0  0  0  0
   -0.4086    3.6844    0.0000 C   0  0  0  0  0  0  0  0  0  0  0  0
    0.7062    2.6807    0.0000 C   0  0  0  0  0  0  0  0  0  0  0  0
    2.1328    3.1443    0.0000 N   0  0  0  0  0  0  0  0  0  0  0  0
    2.4446    4.6115    0.0000 C   0  0  0  0  0  0  0  0  0  0  0  0
    3.8712    5.0750    0.0000 C   0  0  0  0  0  0  0  0  0  0  0  0
    4.1831    6.5422    0.0000 C   0  0  0  0  0  0  0  0  0  0  0  0
    5.6097    7.0058    0.0000 C   0  0  0  0  0  0  0  0  0  0  0  0
    5.9215    8.4730    0.0000 C   0  0  0  0  0  0  0  0  0  0  0  0
    7.3481    8.9365    0.0000 C   0  0  0  0  0  0  0  0  0  0  0  0
    8.4628    7.9328    0.0000 O   0  0  0  0  0  0  0  0  0  0  0  0
    7.6600   10.4037    0.0000 N   0  0  0  0  0  0  0  0  0  0  0  0
    9.0866   10.8673    0.0000 O   0  0  0  0  0  0  0  0  0  0  0  0
    0.3943    1.2135    0.0000 C   0  0  0  0  0  0  0  0  0  0  0  0
    1.2760    0.0000    0.0000 N   0  0  0  0  0  0  0  0  0  0  0  0
    0.3943   -1.2135    0.0000 O   0  0  0  0  0  0  0  0  0  0  0  0
   -1.0323   -0.7500    0.0000 N   0  0  0  0  0  0  0  0  0  0  0  0
   -1.0323    0.7500    0.0000 C   0  0  0  0  0  0  0  0  0  0  0  0
  1  2  1  0
  2  3  1  0
  2  4  1  0
  4  5  2  0
  4  6  2  0
  4  7  1  0
  7  8  2  0
  8  9  1  0
  9 10  2  0
 10 11  1  0
 11 12  1  0
 12 13  1  0
 13 14  1  0
 14 15  1  0
 15 16  1  0
 16 17  1  0
 17 18  2  0
 17 19  1  0
 19 20  1  0
 10 21  1  0
 21 22  2  0
 22 23  1  0
 23 24  1  0
 24 25  2  0
 25  7  1  0
 25 21  1  0
M  END
>  <molecule_chembl_id>  (656) 
CHEMBL4637992

>  <canonical_smiles>  (656) 
CN(C)S(=O)(=O)c1ccc(NCCCCCC(=O)NO)c2nonc12

>  <pchembl_value_mean>  (656) 
6.45

>  <document_chembl_id>  (656) 
CHEMBL4619724

$$$$

     RDKit          2D

 32 36  0  0  0  0  0  0  0  0999 V2000
   -0.8980   -7.8928    0.0000 C   0  0  0  0  0  0  0  0  0  0  0  0
    0.5692   -8.2047    0.0000 C   0  0  0  0  0  0  0  0  0  0  0  0
    1.1793   -9.5750    0.0000 N   0  0  0  0  0  0  0  0  0  0  0  0
    2.6711   -9.4182    0.0000 O   0  0  0  0  0  0  0  0  0  0  0  0
    2.9829   -7.9510    0.0000 C   0  0  0  0  0  0  0  0  0  0  0  0
    4.3533   -7.3409    0.0000 C   0  0  0  0  0  0  0  0  0  0  0  0
    1.6839   -7.2010    0.0000 C   0  0  0  0  0  0  0  0  0  0  0  0
    1.5271   -5.7092    0.0000 C   0  0  0  0  0  0  0  0  0  0  0  0
    0.1568   -5.0991    0.0000 N   0  0  0  0  0  0  0  0  0  0  0  0
   -0.0000   -3.6073    0.0000 C   0  0  0  0  0  0  0  0  0  0  0  0
   -1.2135   -2.7256    0.0000 S   0  0  0  0  0  0  0  0  0  0  0  0
   -0.7500   -1.2990    0.0000 C   0  0  0  0  0  0  0  0  0  0  0  0
    0.7500   -1.2990    0.0000 C   0  0  0  0  0  0  0  0  0  0  0  0
    1.2135   -2.7256    0.0000 C   0  0  0  0  0  0  0  0  0  0  0  0
    2.5838   -3.3357    0.0000 C   0  0  0  0  0  0  0  0  0  0  0  0
    3.7974   -2.4540    0.0000 O   0  0  0  0  0  0  0  0  0  0  0  0
    2.7406   -4.8275    0.0000 N   0  0  0  0  0  0  0  0  0  0  0  0
    1.5000    0.0000    0.0000 C   0  0  0  0  0  0  0  0  0  0  0  0
    0.7500    1.2990    0.0000 C   0  0  0  0  0  0  0  0  0  0  0  0
   -0.7500    1.2990    0.0000 N   0  0  0  0  0  0  0  0  0  0  0  0
   -1.5000    2.5981    0.0000 C   0  0  0  0  0  0  0  0  0  0  0  0
   -0.7500    3.8971    0.0000 C   0  0  0  0  0  0  0  0  0  0  0  0
    0.7500    3.8971    0.0000 O   0  0  0  0  0  0  0  0  0  0  0  0
   -1.5000    5.1962    0.0000 N   0  0  0  0  0  0  0  0  0  0  0  0
   -0.7500    6.4952    0.0000 C   0  0  0  0  0  0  0  0  0  0  0  0
    0.7500    6.4952    0.0000 C   0  0  0  0  0  0  0  0  0  0  0  0
    1.5000    7.7942    0.0000 C   0  0  0  0  0  0  0  0  0  0  0  0
    0.7500    9.0933    0.0000 C   0  0  0  0  0  0  0  0  0  0  0  0
   -0.7500    9.0933    0.0000 C   0  0  0  0  0  0  0  0  0  0  0  0
   -1.5000    7.7942    0.0000 C   0  0  0  0  0  0  0  0  0  0  0  0
   -3.0000    7.7942    0.0000 N   0  0  0  0  0  0  0  0  0  0  0  0
   -1.5000    0.0000    0.0000 C   0  0  0  0  0  0  0  0  0  0  0  0
  1  2  1  0
  2  3  2  0
  3  4  1  0
  4  5  1  0
  5  6  1  0
  5  7  2  0
  7  8  1  0
  8  9  2  0
  9 10  1  0
 10 11  1  0
 11 12  1  0
 12 13  2  0
 13 14  1  0
 14 15  1  0
 15 16  2  0
 15 17  1  0
 13 18  1  0
 18 19  1  0
 19 20  1  0
 20 21  1  0
 21 22  1  0
 22 23  2  0
 22 24  1  0
 24 25  1  0
 25 26  2  0
 26 27  1  0
 27 28  2  0
 28 29  1  0
 29 30  2  0
 30 31  1  0
 20 32  1  0
  7  2  1  0
 17  8  1  0
 30 25  1  0
 14 10  2  0
 32 12  1  0
M  END
>  <molecule_chembl_id>  (657) 
CHEMBL4581033

>  <canonical_smiles>  (657) 
Cc1noc(C)c1-c1nc2sc3c(c2c(=O)[nH]1)CCN(CC(=O)Nc1ccccc1N)C3

>  <pchembl_value_mean>  (657) 
6.45

>  <document_chembl_id>  (657) 
CHEMBL4342471

$$$$

     RDKit          2D

 42 44  0  0  0  0  0  0  0  0999 V2000
   -4.6532  -24.0310    0.0000 C   0  0  0  0  0  0  0  0  0  0  0  0
   -5.0414  -22.5822    0.0000 C   0  0  0  0  0  0  0  0  0  0  0  0
   -3.9807  -21.5215    0.0000 C   0  0  0  0  0  0  0  0  0  0  0  0
   -4.3690  -20.0726    0.0000 C   0  0  0  0  0  0  0  0  0  0  0  0
   -3.3083  -19.0119    0.0000 C   0  0  0  0  0  0  0  0  0  0  0  0
   -3.6965  -17.5631    0.0000 C   0  0  0  0  0  0  0  0  0  0  0  0
   -2.6359  -16.5024    0.0000 C   0  0  0  0  0  0  0  0  0  0  0  0
   -3.0241  -15.0535    0.0000 C   0  0  0  0  0  0  0  0  0  0  0  0
   -4.4730  -14.6653    0.0000 O   0  0  0  0  0  0  0  0  0  0  0  0
   -1.9634  -13.9928    0.0000 S   0  0  0  0  0  0  0  0  0  0  0  0
   -2.3517  -12.5440    0.0000 C   0  0  0  0  0  0  0  0  0  0  0  0
   -1.2910  -11.4833    0.0000 C   0  0  0  0  0  0  0  0  0  0  0  0
   -1.6792  -10.0344    0.0000 C   0  0  0  0  0  0  0  0  0  0  0  0
   -0.6186   -8.9738    0.0000 C   0  0  0  0  0  0  0  0  0  0  0  0
   -1.0068   -7.5249    0.0000 C   0  0  0  0  0  0  0  0  0  0  0  0
    0.3385   -6.8614    0.0000 C   0  0  0  0  0  0  0  0  0  0  0  0
    1.3275   -5.7337    0.0000 C   0  0  0  0  0  0  0  0  0  0  0  0
    2.6266   -6.4837    0.0000 O   0  0  0  0  0  0  0  0  0  0  0  0
    1.8097   -4.3133    0.0000 N   0  0  0  0  0  0  0  0  0  0  0  0
    1.7116   -2.8165    0.0000 C   0  0  0  0  0  0  0  0  0  0  0  0
    0.7500   -1.2990    0.0000 C   0  0  0  0  0  0  0  0  0  0  0  0
    1.5000    0.0000    0.0000 C   0  0  0  0  0  0  0  0  0  0  0  0
    0.7500    1.2990    0.0000 C   0  0  0  0  0  0  0  0  0  0  0  0
   -0.7500    1.2990    0.0000 C   0  0  0  0  0  0  0  0  0  0  0  0
   -1.5000    0.0000    0.0000 C   0  0  0  0  0  0  0  0  0  0  0  0
   -0.7500   -1.2990    0.0000 N   0  0  0  0  0  0  0  0  0  0  0  0
   -2.9968   -0.0981    0.0000 C   0  0  0  0  0  0  0  0  0  0  0  0
   -4.3421   -0.7615    0.0000 N   0  0  0  0  0  0  0  0  0  0  0  0
   -5.3311   -1.8893    0.0000 C   0  0  0  0  0  0  0  0  0  0  0  0
   -6.6302   -1.1393    0.0000 C   0  0  0  0  0  0  0  0  0  0  0  0
   -5.8318   -0.4753    0.0000 C   0  0  0  0  0  0  0  0  0  0  0  0
   -4.6418    0.4378    0.0000 S   0  0  0  0  0  0  0  0  0  0  0  0
   -5.8133   -3.3097    0.0000 C   0  0  0  0  0  0  0  0  0  0  0  0
   -7.3004   -3.1139    0.0000 O   0  0  0  0  0  0  0  0  0  0  0  0
   -5.7152   -4.8065    0.0000 N   0  0  0  0  0  0  0  0  0  0  0  0
   -5.0517   -6.1518    0.0000 C   0  0  0  0  0  0  0  0  0  0  0  0
   -6.2418   -7.0649    0.0000 C   0  0  0  0  0  0  0  0  0  0  0  0
   -7.6276   -6.4909    0.0000 C   0  0  0  0  0  0  0  0  0  0  0  0
   -6.0460   -8.5521    0.0000 C   0  0  0  0  0  0  0  0  0  0  0  0
   -3.9240   -7.1408    0.0000 C   0  0  0  0  0  0  0  0  0  0  0  0
   -4.6740   -8.4398    0.0000 O   0  0  0  0  0  0  0  0  0  0  0  0
   -2.5036   -7.6230    0.0000 O   0  0  0  0  0  0  0  0  0  0  0  0
  1  2  1  0
  2  3  1  0
  3  4  1  0
  4  5  1  0
  5  6  1  0
  6  7  1  0
  7  8  1  0
  8  9  2  0
  8 10  1  0
 10 11  1  0
 11 12  1  0
 12 13  1  0
 13 14  2  3
 14 15  1  0
 15 16  1  0
 16 17  1  0
 17 18  2  0
 17 19  1  0
 19 20  1  0
 20 21  1  0
 21 22  1  0
 22 23  2  0
 23 24  1  0
 24 25  2  0
 25 26  1  0
 25 27  1  0
 27 28  2  0
 28 29  1  0
 29 30  1  0
 29 31  1  0
 31 32  1  0
 29 33  1  0
 33 34  2  0
 33 35  1  0
 35 36  1  0
 36 37  1  0
 37 38  1  0
 37 39  1  0
 36 40  1  0
 40 41  2  0
 40 42  1  0
 42 15  1  0
 26 21  2  0
 32 27  1  0
M  END
>  <molecule_chembl_id>  (658) 
CHEMBL3593408

>  <canonical_smiles>  (658) 
CCCCCCCC(=O)SCCC=CC1CC(=O)NCc2cccc(n2)C2=NC(C)(CS2)C(=O)NC(C(C)C)C(=O)O1

>  <pchembl_value_mean>  (658) 
6.46

>  <document_chembl_id>  (658) 
CHEMBL3593208

$$$$

     RDKit          2D

 34 37  0  0  0  0  0  0  0  0999 V2000
    3.7500    1.2990    0.0000 O   0  0  0  0  0  0  0  0  0  0  0  0
    3.0000    0.0000    0.0000 C   0  0  0  0  0  0  0  0  0  0  0  0
    3.7500   -1.2990    0.0000 N   0  0  0  0  0  0  0  0  0  0  0  0
    5.2500   -1.2990    0.0000 O   0  0  0  0  0  0  0  0  0  0  0  0
    1.5000    0.0000    0.0000 C   0  0  0  0  0  0  0  0  0  0  0  0
    0.7500   -1.2990    0.0000 C   0  0  0  0  0  0  0  0  0  0  0  0
   -0.7500   -1.2990    0.0000 C   0  0  0  0  0  0  0  0  0  0  0  0
   -1.5000    0.0000    0.0000 C   0  0  0  0  0  0  0  0  0  0  0  0
   -3.0000    0.0000    0.0000 C   0  0  0  0  0  0  0  0  0  0  0  0
   -3.7500    1.2990    0.0000 N   0  0  0  0  0  0  0  0  0  0  0  0
   -5.2500    1.2990    0.0000 C   0  0  0  0  0  0  0  0  0  0  0  0
   -6.0000    0.0000    0.0000 O   0  0  0  0  0  0  0  0  0  0  0  0
   -6.0000    2.5981    0.0000 C   0  0  0  0  0  0  0  0  0  0  0  0
   -7.4918    2.7549    0.0000 N   0  0  0  0  0  0  0  0  0  0  0  0
   -7.8037    4.2221    0.0000 C   0  0  0  0  0  0  0  0  0  0  0  0
   -9.1740    4.8322    0.0000 C   0  0  0  0  0  0  0  0  0  0  0  0
   -9.3308    6.3240    0.0000 C   0  0  0  0  0  0  0  0  0  0  0  0
  -10.7011    6.9341    0.0000 C   0  0  0  0  0  0  0  0  0  0  0  0
  -11.9146    6.0524    0.0000 C   0  0  0  0  0  0  0  0  0  0  0  0
  -11.7578    4.5606    0.0000 C   0  0  0  0  0  0  0  0  0  0  0  0
  -10.3875    3.9505    0.0000 C   0  0  0  0  0  0  0  0  0  0  0  0
   -6.5046    4.9721    0.0000 C   0  0  0  0  0  0  0  0  0  0  0  0
   -5.3899    3.9684    0.0000 C   0  0  0  0  0  0  0  0  0  0  0  0
   -3.9227    4.2803    0.0000 C   0  0  0  0  0  0  0  0  0  0  0  0
   -2.9190    3.1655    0.0000 C   0  0  0  0  0  0  0  0  0  0  0  0
   -1.4518    3.4774    0.0000 C   0  0  0  0  0  0  0  0  0  0  0  0
   -0.9882    4.9040    0.0000 C   0  0  0  0  0  0  0  0  0  0  0  0
    0.4790    5.2159    0.0000 N   0  0  0  0  0  4  0  0  0  0  0  0
    1.4827    4.1011    0.0000 O   0  0  0  0  0  0  0  0  0  0  0  0
    0.9425    6.6424    0.0000 O   0  0  0  0  0  1  0  0  0  0  0  0
   -1.9919    6.0187    0.0000 C   0  0  0  0  0  0  0  0  0  0  0  0
   -3.4591    5.7068    0.0000 C   0  0  0  0  0  0  0  0  0  0  0  0
   -0.7500    1.2990    0.0000 C   0  0  0  0  0  0  0  0  0  0  0  0
    0.7500    1.2990    0.0000 C   0  0  0  0  0  0  0  0  0  0  0  0
  1  2  2  0
  2  3  1  0
  3  4  1  0
  2  5  1  0
  5  6  2  0
  6  7  1  0
  7  8  2  0
  8  9  1  0
  9 10  1  0
 10 11  1  0
 11 12  2  0
 11 13  1  0
 13 14  1  0
 14 15  1  0
 15 16  1  0
 16 17  2  0
 17 18  1  0
 18 19  2  0
 19 20  1  0
 20 21  2  0
 15 22  2  0
 22 23  1  0
 23 24  1  0
 24 25  2  0
 25 26  1  0
 26 27  2  0
 27 28  1  0
 28 29  2  0
 28 30  1  0
 27 31  1  0
 31 32  2  0
  8 33  1  0
 33 34  2  0
 34  5  1  0
 23 13  2  0
 32 24  1  0
 21 16  1  0
M  CHG  2  28   1  30  -1
M  END
>  <molecule_chembl_id>  (659) 
CHEMBL3670677

>  <canonical_smiles>  (659) 
O=C(NO)c1ccc(CNC(=O)c2[nH]c(-c3ccccc3)cc2-c2ccc([N+](=O)[O-])cc2)cc1

>  <pchembl_value_mean>  (659) 
6.46

>  <document_chembl_id>  (659) 
CHEMBL3638813

$$$$

     RDKit          2D

 23 24  0  0  0  0  0  0  0  0999 V2000
    3.7500    1.2990    0.0000 O   0  0  0  0  0  0  0  0  0  0  0  0
    3.0000    0.0000    0.0000 C   0  0  0  0  0  0  0  0  0  0  0  0
    3.7500   -1.2990    0.0000 N   0  0  0  0  0  0  0  0  0  0  0  0
    5.2500   -1.2990    0.0000 O   0  0  0  0  0  0  0  0  0  0  0  0
    1.5000    0.0000    0.0000 C   0  0  0  0  0  0  0  0  0  0  0  0
    0.7500   -1.2990    0.0000 C   0  0  0  0  0  0  0  0  0  0  0  0
   -0.7500   -1.2990    0.0000 N   0  0  0  0  0  0  0  0  0  0  0  0
   -1.5000    0.0000    0.0000 C   0  0  0  0  0  0  0  0  0  0  0  0
   -3.0000    0.0000    0.0000 N   0  0  0  0  0  0  0  0  0  0  0  0
   -3.7500    1.2990    0.0000 C   0  0  0  0  0  0  0  0  0  0  0  0
   -5.2500    1.2990    0.0000 C   0  0  0  0  0  0  0  0  0  0  0  0
   -6.0000    2.5981    0.0000 C   0  0  0  0  0  0  0  0  0  0  0  0
   -7.5000    2.5981    0.0000 C   0  0  0  0  0  0  0  0  0  0  0  0
   -8.2500    1.2990    0.0000 C   0  0  0  0  0  0  0  0  0  0  0  0
   -7.5000    0.0000    0.0000 C   0  0  0  0  0  0  0  0  0  0  0  0
   -6.0000    0.0000    0.0000 C   0  0  0  0  0  0  0  0  0  0  0  0
   -5.2500   -1.2990    0.0000 O   0  0  0  0  0  0  0  0  0  0  0  0
   -6.0000   -2.5981    0.0000 C   0  0  0  0  0  0  0  0  0  0  0  0
   -6.7500   -3.8971    0.0000 F   0  0  0  0  0  0  0  0  0  0  0  0
   -4.7010   -3.3481    0.0000 F   0  0  0  0  0  0  0  0  0  0  0  0
   -7.2990   -1.8481    0.0000 F   0  0  0  0  0  0  0  0  0  0  0  0
   -0.7500    1.2990    0.0000 N   0  0  0  0  0  0  0  0  0  0  0  0
    0.7500    1.2990    0.0000 C   0  0  0  0  0  0  0  0  0  0  0  0
  1  2  2  0
  2  3  1  0
  3  4  1  0
  2  5  1  0
  5  6  2  0
  6  7  1  0
  7  8  2  0
  8  9  1  0
  9 10  1  0
 10 11  1  0
 11 12  2  0
 12 13  1  0
 13 14  2  0
 14 15  1  0
 15 16  2  0
 16 17  1  0
 17 18  1  0
 18 19  1  0
 18 20  1  0
 18 21  1  0
  8 22  1  0
 22 23  2  0
 23  5  1  0
 16 11  1  0
M  END
>  <molecule_chembl_id>  (660) 
CHEMBL3655930

>  <canonical_smiles>  (660) 
O=C(NO)c1cnc(NCc2ccccc2OC(F)(F)F)nc1

>  <pchembl_value_mean>  (660) 
6.46

>  <document_chembl_id>  (660) 
CHEMBL3639071

$$$$

     RDKit          2D

 22 23  0  0  0  0  0  0  0  0999 V2000
    3.7500    1.2990    0.0000 O   0  0  0  0  0  0  0  0  0  0  0  0
    3.0000    0.0000    0.0000 C   0  0  0  0  0  0  0  0  0  0  0  0
    3.7500   -1.2990    0.0000 N   0  0  0  0  0  0  0  0  0  0  0  0
    5.2500   -1.2990    0.0000 O   0  0  0  0  0  0  0  0  0  0  0  0
    1.5000    0.0000    0.0000 C   0  0  0  0  0  0  0  0  0  0  0  0
    0.7500   -1.2990    0.0000 C   0  0  0  0  0  0  0  0  0  0  0  0
   -0.7500   -1.2990    0.0000 N   0  0  0  0  0  0  0  0  0  0  0  0
   -1.5000    0.0000    0.0000 C   0  0  0  0  0  0  0  0  0  0  0  0
   -3.0000    0.0000    0.0000 N   0  0  0  0  0  0  0  0  0  0  0  0
   -3.7500    1.2990    0.0000 C   0  0  0  0  0  0  0  0  0  0  0  0
   -3.0000    2.5981    0.0000 C   0  0  0  0  0  0  0  0  0  0  0  0
   -3.7500    3.8971    0.0000 C   0  0  0  0  0  0  0  0  0  0  0  0
   -3.0000    5.1962    0.0000 F   0  0  0  0  0  0  0  0  0  0  0  0
   -5.2500    3.8971    0.0000 C   0  0  0  0  0  0  0  0  0  0  0  0
   -6.0000    2.5981    0.0000 C   0  0  0  0  0  0  0  0  0  0  0  0
   -7.5000    2.5981    0.0000 C   0  0  0  0  0  0  0  0  0  0  0  0
   -9.0000    2.5981    0.0000 F   0  0  0  0  0  0  0  0  0  0  0  0
   -7.5000    4.0981    0.0000 F   0  0  0  0  0  0  0  0  0  0  0  0
   -7.5000    1.0981    0.0000 F   0  0  0  0  0  0  0  0  0  0  0  0
   -5.2500    1.2990    0.0000 C   0  0  0  0  0  0  0  0  0  0  0  0
   -0.7500    1.2990    0.0000 N   0  0  0  0  0  0  0  0  0  0  0  0
    0.7500    1.2990    0.0000 C   0  0  0  0  0  0  0  0  0  0  0  0
  1  2  2  0
  2  3  1  0
  3  4  1  0
  2  5  1  0
  5  6  2  0
  6  7  1  0
  7  8  2  0
  8  9  1  0
  9 10  1  0
 10 11  2  0
 11 12  1  0
 12 13  1  0
 12 14  2  0
 14 15  1  0
 15 16  1  0
 16 17  1  0
 16 18  1  0
 16 19  1  0
 15 20  2  0
  8 21  1  0
 21 22  2  0
 22  5  1  0
 20 10  1  0
M  END
>  <molecule_chembl_id>  (661) 
CHEMBL3655909

>  <canonical_smiles>  (661) 
O=C(NO)c1cnc(Nc2cc(F)cc(C(F)(F)F)c2)nc1

>  <pchembl_value_mean>  (661) 
6.46

>  <document_chembl_id>  (661) 
CHEMBL3639071

$$$$

     RDKit          2D

 29 32  0  0  0  0  0  0  0  0999 V2000
    7.5000   -7.7942    0.0000 O   0  0  0  0  0  0  0  0  0  0  0  0
    6.0000   -7.7942    0.0000 C   0  0  0  0  0  0  0  0  0  0  0  0
    5.2500   -9.0933    0.0000 N   0  0  0  0  0  0  0  0  0  0  0  0
    6.0000  -10.3923    0.0000 O   0  0  0  0  0  0  0  0  0  0  0  0
    5.2500   -6.4952    0.0000 C   0  0  0  0  0  0  0  0  0  0  0  0
    3.7500   -6.4952    0.0000 C   0  0  0  0  0  0  0  0  0  0  0  0
    3.0000   -5.1962    0.0000 C   0  0  0  0  0  0  0  0  0  0  0  0
    3.7500   -3.8971    0.0000 C   0  0  0  0  0  0  0  0  0  0  0  0
    3.0000   -2.5981    0.0000 C   0  0  0  0  0  0  0  0  0  0  0  0
    1.5000   -2.5981    0.0000 N   0  0  0  0  0  0  0  0  0  0  0  0
    0.7500   -1.2990    0.0000 C   0  0  0  0  0  0  0  0  0  0  0  0
    1.5000    0.0000    0.0000 C   0  0  0  0  0  0  0  0  0  0  0  0
    0.7500    1.2990    0.0000 C   0  0  0  0  0  0  0  0  0  0  0  0
   -0.7500    1.2990    0.0000 C   0  0  0  0  0  0  0  0  0  0  0  0
   -1.5000    0.0000    0.0000 C   0  0  0  0  0  0  0  0  0  0  0  0
   -0.7500   -1.2990    0.0000 C   0  0  0  0  0  0  0  0  0  0  0  0
   -1.5000   -2.5981    0.0000 N   0  0  0  0  0  0  0  0  0  0  0  0
   -0.7500   -3.8971    0.0000 C   0  0  0  0  0  0  0  0  0  0  0  0
   -1.5000   -5.1962    0.0000 O   0  0  0  0  0  0  0  0  0  0  0  0
    0.7500   -3.8971    0.0000 C   0  0  0  0  0  0  0  0  0  0  0  0
    1.5000   -5.1962    0.0000 C   0  0  0  0  0  0  0  0  0  0  0  0
    0.7500   -6.4952    0.0000 C   0  0  0  0  0  0  0  0  0  0  0  0
   -0.7500   -6.4952    0.0000 C   0  0  0  0  0  0  0  0  0  0  0  0
   -1.5000   -7.7942    0.0000 C   0  0  0  0  0  0  0  0  0  0  0  0
   -0.7500   -9.0933    0.0000 C   0  0  0  0  0  0  0  0  0  0  0  0
    0.7500   -9.0933    0.0000 C   0  0  0  0  0  0  0  0  0  0  0  0
    1.5000   -7.7942    0.0000 C   0  0  0  0  0  0  0  0  0  0  0  0
    5.2500   -3.8971    0.0000 C   0  0  0  0  0  0  0  0  0  0  0  0
    6.0000   -5.1962    0.0000 C   0  0  0  0  0  0  0  0  0  0  0  0
  1  2  2  0
  2  3  1  0
  3  4  1  0
  2  5  1  0
  5  6  2  0
  6  7  1  0
  7  8  2  0
  8  9  1  0
  9 10  1  0
 10 11  1  0
 11 12  2  0
 12 13  1  0
 13 14  2  0
 14 15  1  0
 15 16  2  0
 16 17  1  0
 17 18  1  0
 18 19  2  0
 18 20  1  0
 20 21  1  0
 21 22  1  0
 22 23  2  0
 23 24  1  0
 24 25  2  0
 25 26  1  0
 26 27  2  0
  8 28  1  0
 28 29  2  0
 29  5  1  0
 20 10  1  0
 27 22  1  0
 16 11  1  0
M  END
>  <molecule_chembl_id>  (662) 
CHEMBL479842

>  <canonical_smiles>  (662) 
O=C(NO)c1ccc(CN2c3ccccc3NC(=O)C2Cc2ccccc2)cc1

>  <pchembl_value_mean>  (662) 
6.46

>  <document_chembl_id>  (662) 
CHEMBL1143301

$$$$

     RDKit          2D

 21 22  0  0  0  0  0  0  0  0999 V2000
    3.7500   -1.2990    0.0000 C   0  0  0  0  0  0  0  0  0  0  0  0
    3.0000    0.0000    0.0000 O   0  0  0  0  0  0  0  0  0  0  0  0
    1.5000    0.0000    0.0000 C   0  0  0  0  0  0  0  0  0  0  0  0
    0.7500   -1.2990    0.0000 C   0  0  0  0  0  0  0  0  0  0  0  0
   -0.7500   -1.2990    0.0000 C   0  0  0  0  0  0  0  0  0  0  0  0
   -1.5000   -2.5981    0.0000 N   0  0  0  0  0  0  0  0  0  0  0  0
   -3.0000   -2.5981    0.0000 C   0  0  0  0  0  0  0  0  0  0  0  0
   -3.7500   -1.2990    0.0000 N   0  0  0  0  0  0  0  0  0  0  0  0
   -5.2500   -1.2990    0.0000 C   0  0  0  0  0  0  0  0  0  0  0  0
   -6.0000   -2.5981    0.0000 C   0  0  0  0  0  0  0  0  0  0  0  0
   -7.5000   -2.5981    0.0000 C   0  0  0  0  0  0  0  0  0  0  0  0
   -8.2500   -3.8971    0.0000 O   0  0  0  0  0  0  0  0  0  0  0  0
   -8.2500   -1.2990    0.0000 N   0  0  0  0  0  0  0  0  0  0  0  0
   -9.7500   -1.2990    0.0000 O   0  0  0  0  0  0  0  0  0  0  0  0
   -5.2500   -3.8971    0.0000 C   0  0  0  0  0  0  0  0  0  0  0  0
   -3.7500   -3.8971    0.0000 N   0  0  0  0  0  0  0  0  0  0  0  0
   -1.5000    0.0000    0.0000 C   0  0  0  0  0  0  0  0  0  0  0  0
   -0.7500    1.2990    0.0000 C   0  0  0  0  0  0  0  0  0  0  0  0
   -1.5000    2.5981    0.0000 O   0  0  0  0  0  0  0  0  0  0  0  0
   -0.7500    3.8971    0.0000 C   0  0  0  0  0  0  0  0  0  0  0  0
    0.7500    1.2990    0.0000 C   0  0  0  0  0  0  0  0  0  0  0  0
  1  2  1  0
  2  3  1  0
  3  4  2  0
  4  5  1  0
  5  6  1  0
  6  7  1  0
  7  8  2  0
  8  9  1  0
  9 10  2  0
 10 11  1  0
 11 12  2  0
 11 13  1  0
 13 14  1  0
 10 15  1  0
 15 16  2  0
  5 17  2  0
 17 18  1  0
 18 19  1  0
 19 20  1  0
 18 21  2  0
 21  3  1  0
 16  7  1  0
M  END
>  <molecule_chembl_id>  (663) 
CHEMBL3652243

>  <canonical_smiles>  (663) 
COc1cc(Nc2ncc(C(=O)NO)cn2)cc(OC)c1

>  <pchembl_value_mean>  (663) 
6.46

>  <document_chembl_id>  (663) 
CHEMBL3639071

$$$$

     RDKit          2D

 43 47  0  0  0  0  0  0  0  0999 V2000
   -4.3786   -5.1199    0.0000 C   0  0  0  0  0  0  0  0  0  0  0  0
   -2.9520   -4.6564    0.0000 C   0  0  0  0  0  0  0  0  0  0  0  0
   -2.6401   -3.1891    0.0000 C   0  0  0  0  0  0  0  0  0  0  0  0
   -1.2135   -2.7256    0.0000 C   0  0  0  0  0  0  0  0  0  0  0  0
   -0.0000   -3.6073    0.0000 N   0  0  0  0  0  0  0  0  0  0  0  0
    1.2135   -2.7256    0.0000 N   0  0  0  0  0  0  0  0  0  0  0  0
    2.6401   -3.1891    0.0000 C   0  0  0  0  0  0  0  0  0  0  0  0
    0.7500   -1.2990    0.0000 C   0  0  0  0  0  0  0  0  0  0  0  0
    1.5000    0.0000    0.0000 C   0  0  0  0  0  0  0  0  0  0  0  0
    3.0000    0.0000    0.0000 O   0  0  0  0  0  0  0  0  0  0  0  0
    0.7500    1.2990    0.0000 N   0  0  0  0  0  0  0  0  0  0  0  0
   -0.7500    1.2990    0.0000 C   0  0  0  0  0  0  0  0  0  0  0  0
   -1.5000    2.5981    0.0000 C   0  0  0  0  0  0  0  0  0  0  0  0
   -0.7500    3.8971    0.0000 C   0  0  0  0  0  0  0  0  0  0  0  0
   -1.5000    5.1962    0.0000 C   0  0  0  0  0  0  0  0  0  0  0  0
   -0.7500    6.4952    0.0000 S   0  0  0  0  0  0  0  0  0  0  0  0
    0.5490    5.7452    0.0000 O   0  0  0  0  0  0  0  0  0  0  0  0
   -2.0490    7.2452    0.0000 O   0  0  0  0  0  0  0  0  0  0  0  0
    0.0000    7.7942    0.0000 N   0  0  0  0  0  0  0  0  0  0  0  0
   -0.7500    9.0933    0.0000 C   0  0  0  0  0  0  0  0  0  0  0  0
    0.0000   10.3923    0.0000 C   0  0  0  0  0  0  0  0  0  0  0  0
   -0.7500   11.6913    0.0000 C   0  0  0  0  0  0  0  0  0  0  0  0
   -2.2500   11.6913    0.0000 N   0  0  0  0  0  0  0  0  0  0  0  0
   -3.0000   12.9904    0.0000 C   0  0  0  0  0  0  0  0  0  0  0  0
   -2.2500   14.2894    0.0000 N   0  0  0  0  0  0  0  0  0  0  0  0
   -3.0000   15.5885    0.0000 C   0  0  0  0  0  0  0  0  0  0  0  0
   -4.5000   15.5885    0.0000 C   0  0  0  0  0  0  0  0  0  0  0  0
   -5.2500   16.8875    0.0000 C   0  0  0  0  0  0  0  0  0  0  0  0
   -6.7500   16.8875    0.0000 O   0  0  0  0  0  0  0  0  0  0  0  0
   -4.5000   18.1865    0.0000 N   0  0  0  0  0  0  0  0  0  0  0  0
   -5.2500   19.4856    0.0000 O   0  0  0  0  0  0  0  0  0  0  0  0
   -5.2500   14.2894    0.0000 C   0  0  0  0  0  0  0  0  0  0  0  0
   -4.5000   12.9904    0.0000 N   0  0  0  0  0  0  0  0  0  0  0  0
   -3.0000   10.3923    0.0000 C   0  0  0  0  0  0  0  0  0  0  0  0
   -2.2500    9.0933    0.0000 C   0  0  0  0  0  0  0  0  0  0  0  0
   -3.0000    5.1962    0.0000 C   0  0  0  0  0  0  0  0  0  0  0  0
   -3.7500    3.8971    0.0000 C   0  0  0  0  0  0  0  0  0  0  0  0
   -3.0000    2.5981    0.0000 C   0  0  0  0  0  0  0  0  0  0  0  0
   -3.7500    1.2990    0.0000 O   0  0  0  0  0  0  0  0  0  0  0  0
   -5.2500    1.2990    0.0000 C   0  0  0  0  0  0  0  0  0  0  0  0
   -6.0000    0.0000    0.0000 C   0  0  0  0  0  0  0  0  0  0  0  0
   -1.5000    0.0000    0.0000 N   0  0  0  0  0  0  0  0  0  0  0  0
   -0.7500   -1.2990    0.0000 C   0  0  0  0  0  0  0  0  0  0  0  0
  1  2  1  0
  2  3  1  0
  3  4  1  0
  4  5  2  0
  5  6  1  0
  6  7  1  0
  6  8  1  0
  8  9  1  0
  9 10  2  0
  9 11  1  0
 11 12  1  0
 12 13  1  0
 13 14  2  0
 14 15  1  0
 15 16  1  0
 16 17  2  0
 16 18  2  0
 16 19  1  0
 19 20  1  0
 20 21  1  0
 21 22  1  0
 22 23  1  0
 23 24  1  0
 24 25  2  0
 25 26  1  0
 26 27  2  0
 27 28  1  0
 28 29  2  0
 28 30  1  0
 30 31  1  0
 27 32  1  0
 32 33  2  0
 23 34  1  0
 34 35  1  0
 15 36  2  0
 36 37  1  0
 37 38  2  0
 38 39  1  0
 39 40  1  0
 40 41  1  0
 12 42  2  0
 42 43  1  0
 43  4  1  0
 43  8  2  0
 38 13  1  0
 35 20  1  0
 33 24  1  0
M  END
>  <molecule_chembl_id>  (664) 
CHEMBL3986487

>  <canonical_smiles>  (664) 
CCCc1nn(C)c2c(=O)[nH]c(-c3cc(S(=O)(=O)NC4CCN(c5ncc(C(=O)NO)cn5)CC4)ccc3OCC)nc12

>  <pchembl_value_mean>  (664) 
6.47

>  <document_chembl_id>  (664) 
CHEMBL3860059

$$$$

     RDKit          2D

 39 43  0  0  0  0  0  0  0  0999 V2000
    6.0000   -0.0000    0.0000 C   0  0  0  0  0  0  0  0  0  0  0  0
    5.2500   -1.2990    0.0000 C   0  0  0  0  0  0  0  0  0  0  0  0
    3.7500   -1.2990    0.0000 O   0  0  0  0  0  0  0  0  0  0  0  0
    3.0000   -2.5981    0.0000 C   0  0  0  0  0  0  0  0  0  0  0  0
    3.7500   -3.8971    0.0000 C   0  0  0  0  0  0  0  0  0  0  0  0
    3.0000   -5.1962    0.0000 C   0  0  0  0  0  0  0  0  0  0  0  0
    1.5000   -5.1962    0.0000 C   0  0  0  0  0  0  0  0  0  0  0  0
    0.7500   -6.4952    0.0000 C   0  0  0  0  0  0  0  0  0  0  0  0
   -0.7500   -6.4952    0.0000 C   0  0  0  0  0  0  0  0  0  0  0  0
   -1.5000   -5.1962    0.0000 C   0  0  0  0  0  0  0  0  0  0  0  0
   -3.0000   -5.1962    0.0000 C   0  0  0  0  0  0  0  0  0  0  0  0
   -3.7500   -6.4952    0.0000 N   0  0  0  0  0  0  0  0  0  0  0  0
   -5.2500   -6.4952    0.0000 C   0  0  0  0  0  0  0  0  0  0  0  0
   -6.0000   -5.1962    0.0000 N   0  0  0  0  0  0  0  0  0  0  0  0
   -7.5000   -5.1962    0.0000 C   0  0  0  0  0  0  0  0  0  0  0  0
   -8.2500   -6.4952    0.0000 C   0  0  0  0  0  0  0  0  0  0  0  0
   -9.7500   -6.4952    0.0000 C   0  0  0  0  0  0  0  0  0  0  0  0
  -10.5000   -7.7942    0.0000 O   0  0  0  0  0  0  0  0  0  0  0  0
  -10.5000   -5.1962    0.0000 N   0  0  0  0  0  0  0  0  0  0  0  0
  -12.0000   -5.1962    0.0000 O   0  0  0  0  0  0  0  0  0  0  0  0
   -7.5000   -7.7942    0.0000 C   0  0  0  0  0  0  0  0  0  0  0  0
   -6.0000   -7.7942    0.0000 N   0  0  0  0  0  0  0  0  0  0  0  0
   -3.0000   -7.7942    0.0000 C   0  0  0  0  0  0  0  0  0  0  0  0
   -1.5000   -7.7942    0.0000 C   0  0  0  0  0  0  0  0  0  0  0  0
    0.7500   -3.8971    0.0000 C   0  0  0  0  0  0  0  0  0  0  0  0
    1.5000   -2.5981    0.0000 C   0  0  0  0  0  0  0  0  0  0  0  0
    0.7500   -1.2990    0.0000 C   0  0  0  0  0  0  0  0  0  0  0  0
    1.5000    0.0000    0.0000 N   0  0  0  0  0  0  0  0  0  0  0  0
    0.7500    1.2990    0.0000 C   0  0  0  0  0  0  0  0  0  0  0  0
    1.2135    2.7256    0.0000 C   0  0  0  0  0  0  0  0  0  0  0  0
    2.6401    3.1891    0.0000 C   0  0  0  0  0  0  0  0  0  0  0  0
    2.9520    4.6564    0.0000 C   0  0  0  0  0  0  0  0  0  0  0  0
    0.0000    3.6073    0.0000 N   0  0  0  0  0  0  0  0  0  0  0  0
   -1.2135    2.7256    0.0000 N   0  0  0  0  0  0  0  0  0  0  0  0
   -2.6401    3.1891    0.0000 C   0  0  0  0  0  0  0  0  0  0  0  0
   -0.7500    1.2990    0.0000 C   0  0  0  0  0  0  0  0  0  0  0  0
   -1.5000    0.0000    0.0000 C   0  0  0  0  0  0  0  0  0  0  0  0
   -3.0000    0.0000    0.0000 O   0  0  0  0  0  0  0  0  0  0  0  0
   -0.7500   -1.2990    0.0000 N   0  0  0  0  0  0  0  0  0  0  0  0
  1  2  1  0
  2  3  1  0
  3  4  1  0
  4  5  2  0
  5  6  1  0
  6  7  2  0
  7  8  1  0
  8  9  1  0
  9 10  1  0
 10 11  1  0
 11 12  1  0
 12 13  1  0
 13 14  2  0
 14 15  1  0
 15 16  2  0
 16 17  1  0
 17 18  2  0
 17 19  1  0
 19 20  1  0
 16 21  1  0
 21 22  2  0
 12 23  1  0
 23 24  1  0
  7 25  1  0
 25 26  2  0
 26 27  1  0
 27 28  2  0
 28 29  1  0
 29 30  1  0
 30 31  1  0
 31 32  1  0
 30 33  2  0
 33 34  1  0
 34 35  1  0
 34 36  1  0
 36 37  1  0
 37 38  2  0
 37 39  1  0
 26  4  1  0
 39 27  1  0
 24  9  1  0
 36 29  2  0
 22 13  1  0
M  END
>  <molecule_chembl_id>  (665) 
CHEMBL3895838

>  <canonical_smiles>  (665) 
CCOc1ccc(CC2CCN(c3ncc(C(=O)NO)cn3)CC2)cc1-c1nc2c(CC)nn(C)c2c(=O)[nH]1

>  <pchembl_value_mean>  (665) 
6.47

>  <document_chembl_id>  (665) 
CHEMBL3860059

$$$$

     RDKit          2D

 45 49  0  0  0  0  0  0  0  0999 V2000
    1.9979  -12.6093    0.0000 C   0  0  0  0  0  0  0  0  0  0  0  0
    2.3097  -11.1421    0.0000 O   0  0  0  0  0  0  0  0  0  0  0  0
    1.1950  -10.1384    0.0000 C   0  0  0  0  0  0  0  0  0  0  0  0
   -0.2316  -10.6019    0.0000 C   0  0  0  0  0  0  0  0  0  0  0  0
   -1.3463   -9.5982    0.0000 C   0  0  0  0  0  0  0  0  0  0  0  0
   -1.0344   -8.1310    0.0000 C   0  0  0  0  0  0  0  0  0  0  0  0
   -2.1491   -7.1273    0.0000 C   0  0  0  0  0  0  0  0  0  0  0  0
   -3.5757   -7.5908    0.0000 O   0  0  0  0  0  0  0  0  0  0  0  0
   -1.8373   -5.6601    0.0000 N   0  0  0  0  0  0  0  0  0  0  0  0
   -2.9520   -4.6564    0.0000 C   0  0  0  0  0  0  0  0  0  0  0  0
   -2.6401   -3.1891    0.0000 C   0  0  0  0  0  0  0  0  0  0  0  0
   -1.2135   -2.7256    0.0000 C   0  0  0  0  0  0  0  0  0  0  0  0
   -0.0000   -3.6073    0.0000 C   0  0  0  0  0  0  0  0  0  0  0  0
    1.2135   -2.7256    0.0000 N   0  0  0  0  0  0  0  0  0  0  0  0
    0.7500   -1.2990    0.0000 C   0  0  0  0  0  0  0  0  0  0  0  0
    1.5000    0.0000    0.0000 C   0  0  0  0  0  0  0  0  0  0  0  0
    0.7500    1.2990    0.0000 C   0  0  0  0  0  0  0  0  0  0  0  0
   -0.7500    1.2990    0.0000 C   0  0  0  0  0  0  0  0  0  0  0  0
   -1.5000    0.0000    0.0000 C   0  0  0  0  0  0  0  0  0  0  0  0
   -0.7500   -1.2990    0.0000 C   0  0  0  0  0  0  0  0  0  0  0  0
   -4.3786   -5.1199    0.0000 C   0  0  0  0  0  0  0  0  0  0  0  0
   -5.4933   -4.1162    0.0000 O   0  0  0  0  0  0  0  0  0  0  0  0
   -4.6904   -6.5871    0.0000 N   0  0  0  0  0  0  0  0  0  0  0  0
   -6.1170   -7.0506    0.0000 C   0  0  0  0  0  0  0  0  0  0  0  0
   -6.4289   -8.5179    0.0000 C   0  0  0  0  0  0  0  0  0  0  0  0
   -7.8555   -8.9814    0.0000 C   0  0  0  0  0  0  0  0  0  0  0  0
   -8.1673  -10.4486    0.0000 C   0  0  0  0  0  0  0  0  0  0  0  0
   -9.5939  -10.9121    0.0000 C   0  0  0  0  0  0  0  0  0  0  0  0
   -9.9058  -12.3794    0.0000 C   0  0  0  0  0  0  0  0  0  0  0  0
   -8.7911  -13.3831    0.0000 O   0  0  0  0  0  0  0  0  0  0  0  0
  -11.3324  -12.8429    0.0000 N   0  0  0  0  0  0  0  0  0  0  0  0
  -11.6442  -14.3101    0.0000 C   0  0  0  0  0  0  0  0  0  0  0  0
  -13.0708  -14.7736    0.0000 C   0  0  0  0  0  0  0  0  0  0  0  0
  -13.3827  -16.2409    0.0000 C   0  0  0  0  0  0  0  0  0  0  0  0
  -14.8093  -16.7044    0.0000 C   0  0  0  0  0  0  0  0  0  0  0  0
  -15.2728  -18.1310    0.0000 C   0  0  0  0  0  0  0  0  0  0  0  0
  -16.7728  -18.1310    0.0000 C   0  0  0  0  0  0  0  0  0  0  0  0
  -17.2363  -16.7044    0.0000 C   0  0  0  0  0  0  0  0  0  0  0  0
  -16.0228  -15.8227    0.0000 S   0  0  0  0  0  0  0  0  0  0  0  0
  -12.2680  -17.2445    0.0000 C   0  0  0  0  0  0  0  0  0  0  0  0
  -10.8414  -16.7810    0.0000 C   0  0  0  0  0  0  0  0  0  0  0  0
  -10.5295  -15.3138    0.0000 C   0  0  0  0  0  0  0  0  0  0  0  0
   -9.1029  -14.8503    0.0000 N   0  0  0  0  0  0  0  0  0  0  0  0
    0.3922   -7.6675    0.0000 C   0  0  0  0  0  0  0  0  0  0  0  0
    1.5069   -8.6712    0.0000 C   0  0  0  0  0  0  0  0  0  0  0  0
  1  2  1  0
  2  3  1  0
  3  4  2  0
  4  5  1  0
  5  6  2  0
  6  7  1  0
  7  8  2  0
  7  9  1  0
  9 10  1  0
 10 11  1  0
 11 12  1  0
 12 13  2  0
 13 14  1  0
 14 15  1  0
 15 16  2  0
 16 17  1  0
 17 18  2  0
 18 19  1  0
 19 20  2  0
 10 21  1  0
 21 22  2  0
 21 23  1  0
 23 24  1  0
 24 25  1  0
 25 26  1  0
 26 27  1  0
 27 28  1  0
 28 29  1  0
 29 30  2  0
 29 31  1  0
 31 32  1  0
 32 33  2  0
 33 34  1  0
 34 35  1  0
 35 36  2  0
 36 37  1  0
 37 38  2  0
 38 39  1  0
 34 40  2  0
 40 41  1  0
 41 42  2  0
 42 43  1  0
  6 44  1  0
 44 45  2  0
 45  3  1  0
 20 12  1  0
 42 32  1  0
 20 15  1  0
 39 35  1  0
M  END
>  <molecule_chembl_id>  (666) 
CHEMBL4065117

>  <canonical_smiles>  (666) 
COc1ccc(C(=O)NC(Cc2c[nH]c3ccccc23)C(=O)NCCCCCC(=O)Nc2cc(-c3cccs3)ccc2N)cc1

>  <pchembl_value_mean>  (666) 
6.47

>  <document_chembl_id>  (666) 
CHEMBL4020724

$$$$

     RDKit          2D

 33 36  0  0  0  0  0  0  0  0999 V2000
    3.0000    0.0000    0.0000 N   0  0  0  0  0  0  0  0  0  0  0  0
    1.5000    0.0000    0.0000 C   0  0  0  0  0  0  0  0  0  0  0  0
    0.7500   -1.2990    0.0000 C   0  0  0  0  0  0  0  0  0  0  0  0
   -0.7500   -1.2990    0.0000 C   0  0  0  0  0  0  0  0  0  0  0  0
   -1.5000    0.0000    0.0000 C   0  0  0  0  0  0  0  0  0  0  0  0
   -0.7500    1.2990    0.0000 C   0  0  0  0  0  0  0  0  0  0  0  0
    0.7500    1.2990    0.0000 C   0  0  0  0  0  0  0  0  0  0  0  0
    1.5000    2.5981    0.0000 N   0  0  0  0  0  0  0  0  0  0  0  0
    0.7500    3.8971    0.0000 C   0  0  0  0  0  0  0  0  0  0  0  0
   -0.7500    3.8971    0.0000 O   0  0  0  0  0  0  0  0  0  0  0  0
    1.5000    5.1962    0.0000 C   0  0  0  0  0  0  0  0  0  0  0  0
    3.0000    5.1962    0.0000 C   0  0  0  0  0  0  0  0  0  0  0  0
    3.7500    6.4952    0.0000 C   0  0  0  0  0  0  0  0  0  0  0  0
    3.0000    7.7942    0.0000 C   0  0  0  0  0  0  0  0  0  0  0  0
    3.7500    9.0933    0.0000 C   0  0  0  0  0  0  0  0  0  0  0  0
    5.2500    9.0933    0.0000 N   0  0  0  0  0  0  0  0  0  0  0  0
    6.0000   10.3923    0.0000 C   0  0  0  0  0  0  0  0  0  0  0  0
    5.3899   11.7626    0.0000 N   0  0  0  0  0  0  0  0  0  0  0  0
    6.5046   12.7663    0.0000 C   0  0  0  0  0  0  0  0  0  0  0  0
    6.3478   14.2581    0.0000 C   0  0  0  0  0  0  0  0  0  0  0  0
    7.5613   15.1398    0.0000 C   0  0  0  0  0  0  0  0  0  0  0  0
    7.4046   16.6316    0.0000 C   0  0  0  0  0  0  0  0  0  0  0  0
    6.0342   17.2417    0.0000 C   0  0  0  0  0  0  0  0  0  0  0  0
    5.8774   18.7335    0.0000 C   0  0  0  0  0  0  0  0  0  0  0  0
    5.7206   20.2252    0.0000 F   0  0  0  0  0  0  0  0  0  0  0  0
    7.3692   18.8902    0.0000 F   0  0  0  0  0  0  0  0  0  0  0  0
    4.3857   18.5767    0.0000 F   0  0  0  0  0  0  0  0  0  0  0  0
    4.8207   16.3600    0.0000 C   0  0  0  0  0  0  0  0  0  0  0  0
    4.9775   14.8682    0.0000 C   0  0  0  0  0  0  0  0  0  0  0  0
    7.8037   12.0163    0.0000 C   0  0  0  0  0  0  0  0  0  0  0  0
    7.4918   10.5491    0.0000 O   0  0  0  0  0  0  0  0  0  0  0  0
    1.5000    7.7942    0.0000 C   0  0  0  0  0  0  0  0  0  0  0  0
    0.7500    6.4952    0.0000 C   0  0  0  0  0  0  0  0  0  0  0  0
  1  2  1  0
  2  3  2  0
  3  4  1  0
  4  5  2  0
  5  6  1  0
  6  7  2  0
  7  8  1  0
  8  9  1  0
  9 10  2  0
  9 11  1  0
 11 12  2  0
 12 13  1  0
 13 14  2  0
 14 15  1  0
 15 16  1  0
 16 17  1  0
 17 18  2  0
 18 19  1  0
 19 20  1  0
 20 21  2  0
 21 22  1  0
 22 23  2  0
 23 24  1  0
 24 25  1  0
 24 26  1  0
 24 27  1  0
 23 28  1  0
 28 29  2  0
 19 30  1  0
 30 31  1  0
 14 32  1  0
 32 33  2  0
  7  2  1  0
 33 11  1  0
 31 17  1  0
 29 20  1  0
M  END
>  <molecule_chembl_id>  (667) 
CHEMBL3605498

>  <canonical_smiles>  (667) 
Nc1ccccc1NC(=O)c1ccc(CNC2=NC(c3ccc(C(F)(F)F)cc3)CO2)cc1

>  <pchembl_value_mean>  (667) 
6.47

>  <document_chembl_id>  (667) 
CHEMBL3603817

$$$$

     RDKit          2D

 21 22  0  0  0  0  0  0  0  0999 V2000
    3.7500   -1.2990    0.0000 C   0  0  0  0  0  0  0  0  0  0  0  0
    3.0000    0.0000    0.0000 O   0  0  0  0  0  0  0  0  0  0  0  0
    1.5000    0.0000    0.0000 C   0  0  0  0  0  0  0  0  0  0  0  0
    0.7500   -1.2990    0.0000 C   0  0  0  0  0  0  0  0  0  0  0  0
   -0.7500   -1.2990    0.0000 C   0  0  0  0  0  0  0  0  0  0  0  0
   -1.5000   -2.5981    0.0000 F   0  0  0  0  0  0  0  0  0  0  0  0
   -1.5000    0.0000    0.0000 C   0  0  0  0  0  0  0  0  0  0  0  0
   -0.7500    1.2990    0.0000 C   0  0  0  0  0  0  0  0  0  0  0  0
    0.7500    1.2990    0.0000 C   0  0  0  0  0  0  0  0  0  0  0  0
    1.5000    2.5981    0.0000 C   0  0  0  0  0  0  0  0  0  0  0  0
    3.0000    2.5981    0.0000 N   0  0  0  0  0  0  0  0  0  0  0  0
    3.7500    3.8971    0.0000 C   0  0  0  0  0  0  0  0  0  0  0  0
    5.2500    3.8971    0.0000 N   0  0  0  0  0  0  0  0  0  0  0  0
    6.0000    5.1962    0.0000 C   0  0  0  0  0  0  0  0  0  0  0  0
    5.2500    6.4952    0.0000 C   0  0  0  0  0  0  0  0  0  0  0  0
    6.0000    7.7942    0.0000 C   0  0  0  0  0  0  0  0  0  0  0  0
    5.2500    9.0933    0.0000 O   0  0  0  0  0  0  0  0  0  0  0  0
    7.5000    7.7942    0.0000 N   0  0  0  0  0  0  0  0  0  0  0  0
    8.2500    9.0933    0.0000 O   0  0  0  0  0  0  0  0  0  0  0  0
    3.7500    6.4952    0.0000 C   0  0  0  0  0  0  0  0  0  0  0  0
    3.0000    5.1962    0.0000 N   0  0  0  0  0  0  0  0  0  0  0  0
  1  2  1  0
  2  3  1  0
  3  4  2  0
  4  5  1  0
  5  6  1  0
  5  7  2  0
  7  8  1  0
  8  9  2  0
  9 10  1  0
 10 11  1  0
 11 12  1  0
 12 13  2  0
 13 14  1  0
 14 15  2  0
 15 16  1  0
 16 17  2  0
 16 18  1  0
 18 19  1  0
 15 20  1  0
 20 21  2  0
  9  3  1  0
 21 12  1  0
M  END
>  <molecule_chembl_id>  (668) 
CHEMBL3655932

>  <canonical_smiles>  (668) 
COc1cc(F)ccc1CNc1ncc(C(=O)NO)cn1

>  <pchembl_value_mean>  (668) 
6.47

>  <document_chembl_id>  (668) 
CHEMBL3639071

$$$$

     RDKit          2D

 28 30  0  0  0  0  0  0  0  0999 V2000
    3.7500   -1.2990    0.0000 C   0  0  0  0  0  0  0  0  0  0  0  0
    3.0000    0.0000    0.0000 O   0  0  0  0  0  0  0  0  0  0  0  0
    1.5000    0.0000    0.0000 C   0  0  0  0  0  0  0  0  0  0  0  0
    0.7500   -1.2990    0.0000 C   0  0  0  0  0  0  0  0  0  0  0  0
   -0.7500   -1.2990    0.0000 C   0  0  0  0  0  0  0  0  0  0  0  0
   -1.5000    0.0000    0.0000 C   0  0  0  0  0  0  0  0  0  0  0  0
   -0.7500    1.2990    0.0000 C   0  0  0  0  0  0  0  0  0  0  0  0
    0.7500    1.2990    0.0000 C   0  0  0  0  0  0  0  0  0  0  0  0
   -1.7537    2.4138    0.0000 C   0  0  0  0  0  0  0  0  0  0  0  0
   -1.4418    3.8810    0.0000 C   0  0  0  0  0  0  0  0  0  0  0  0
   -2.5565    4.8847    0.0000 C   0  0  0  0  0  0  0  0  0  0  0  0
   -2.2447    6.3519    0.0000 N   0  0  0  0  0  0  0  0  0  0  0  0
   -3.3594    7.3556    0.0000 C   0  0  0  0  0  0  0  0  0  0  0  0
   -3.0475    8.8228    0.0000 C   0  0  0  0  0  0  0  0  0  0  0  0
   -4.7860    6.8921    0.0000 O   0  0  0  0  0  0  0  0  0  0  0  0
   -3.1240    1.8037    0.0000 C   0  0  0  0  0  0  0  0  0  0  0  0
   -2.9672    0.3119    0.0000 N   0  0  0  0  0  0  0  0  0  0  0  0
   -4.0819   -0.6918    0.0000 C   0  0  0  0  0  0  0  0  0  0  0  0
   -5.5085   -0.2283    0.0000 C   0  0  0  0  0  0  0  0  0  0  0  0
   -5.8204    1.2389    0.0000 C   0  0  0  0  0  0  0  0  0  0  0  0
   -7.2470    1.7024    0.0000 C   0  0  0  0  0  0  0  0  0  0  0  0
   -8.3617    0.6987    0.0000 C   0  0  0  0  0  0  0  0  0  0  0  0
   -9.7883    1.1623    0.0000 C   0  0  0  0  0  0  0  0  0  0  0  0
  -10.9030    0.1586    0.0000 O   0  0  0  0  0  0  0  0  0  0  0  0
  -10.1001    2.6295    0.0000 N   0  0  0  0  0  0  0  0  0  0  0  0
  -11.5267    3.0930    0.0000 O   0  0  0  0  0  0  0  0  0  0  0  0
   -8.0498   -0.7685    0.0000 C   0  0  0  0  0  0  0  0  0  0  0  0
   -6.6232   -1.2320    0.0000 C   0  0  0  0  0  0  0  0  0  0  0  0
  1  2  1  0
  2  3  1  0
  3  4  2  0
  4  5  1  0
  5  6  2  0
  6  7  1  0
  7  8  2  0
  7  9  1  0
  9 10  1  0
 10 11  1  0
 11 12  1  0
 12 13  1  0
 13 14  1  0
 13 15  2  0
  9 16  2  0
 16 17  1  0
 17 18  1  0
 18 19  1  0
 19 20  2  0
 20 21  1  0
 21 22  2  0
 22 23  1  0
 23 24  2  0
 23 25  1  0
 25 26  1  0
 22 27  1  0
 27 28  2  0
  8  3  1  0
 28 19  1  0
 17  6  1  0
M  END
>  <molecule_chembl_id>  (669) 
CHEMBL5076794

>  <canonical_smiles>  (669) 
COc1ccc2c(c1)c(CCNC(C)=O)cn2Cc1ccc(C(=O)NO)cc1

>  <pchembl_value_mean>  (669) 
6.47

>  <document_chembl_id>  (669) 
CHEMBL5036306

$$$$

     RDKit          2D

 21 22  0  0  0  0  0  0  0  0999 V2000
    3.7500    1.2990    0.0000 O   0  0  0  0  0  0  0  0  0  0  0  0
    3.0000    0.0000    0.0000 C   0  0  0  0  0  0  0  0  0  0  0  0
    3.7500   -1.2990    0.0000 N   0  0  0  0  0  0  0  0  0  0  0  0
    5.2500   -1.2990    0.0000 O   0  0  0  0  0  0  0  0  0  0  0  0
    1.5000    0.0000    0.0000 C   0  0  0  0  0  0  0  0  0  0  0  0
    0.7500   -1.2990    0.0000 C   0  0  0  0  0  0  0  0  0  0  0  0
   -0.7500   -1.2990    0.0000 C   0  0  0  0  0  0  0  0  0  0  0  0
   -1.5000    0.0000    0.0000 C   0  0  0  0  0  0  0  0  0  0  0  0
   -3.0000    0.0000    0.0000 C   0  0  0  0  0  0  0  0  0  0  0  0
   -3.7500   -1.2990    0.0000 O   0  0  0  0  0  0  0  0  0  0  0  0
   -3.7500    1.2990    0.0000 N   0  0  0  0  0  0  0  0  0  0  0  0
   -5.2500    1.2990    0.0000 C   0  0  0  0  0  0  0  0  0  0  0  0
   -6.0000    2.5981    0.0000 C   0  0  0  0  0  0  0  0  0  0  0  0
   -7.5000    2.5981    0.0000 C   0  0  0  0  0  0  0  0  0  0  0  0
   -8.2500    3.8971    0.0000 C   0  0  0  0  0  0  0  0  0  0  0  0
   -9.7500    3.8971    0.0000 C   0  0  0  0  0  0  0  0  0  0  0  0
  -10.5000    2.5981    0.0000 N   0  0  0  0  0  0  0  0  0  0  0  0
   -9.7500    1.2990    0.0000 C   0  0  0  0  0  0  0  0  0  0  0  0
   -8.2500    1.2990    0.0000 C   0  0  0  0  0  0  0  0  0  0  0  0
   -0.7500    1.2990    0.0000 C   0  0  0  0  0  0  0  0  0  0  0  0
    0.7500    1.2990    0.0000 C   0  0  0  0  0  0  0  0  0  0  0  0
  1  2  2  0
  2  3  1  0
  3  4  1  0
  2  5  1  0
  5  6  2  0
  6  7  1  0
  7  8  2  0
  8  9  1  0
  9 10  2  0
  9 11  1  0
 11 12  1  0
 12 13  1  0
 13 14  1  0
 14 15  2  0
 15 16  1  0
 16 17  2  0
 17 18  1  0
 18 19  2  0
  8 20  1  0
 20 21  2  0
 21  5  1  0
 19 14  1  0
M  END
>  <molecule_chembl_id>  (670) 
CHEMBL2333339

>  <canonical_smiles>  (670) 
O=C(NO)c1ccc(C(=O)NCCc2ccncc2)cc1

>  <pchembl_value_mean>  (670) 
6.47

>  <document_chembl_id>  (670) 
CHEMBL2331470

$$$$

     RDKit          2D

 18 19  0  0  0  0  0  0  0  0999 V2000
    3.7500    1.2990    0.0000 O   0  0  0  0  0  0  0  0  0  0  0  0
    3.0000    0.0000    0.0000 C   0  0  0  0  0  0  0  0  0  0  0  0
    3.7500   -1.2990    0.0000 N   0  0  0  0  0  0  0  0  0  0  0  0
    5.2500   -1.2990    0.0000 O   0  0  0  0  0  0  0  0  0  0  0  0
    1.5000    0.0000    0.0000 C   0  0  0  0  0  0  0  0  0  0  0  0
    0.7500   -1.2990    0.0000 C   0  0  0  0  0  0  0  0  0  0  0  0
   -0.7500   -1.2990    0.0000 N   0  0  0  0  0  0  0  0  0  0  0  0
   -1.5000    0.0000    0.0000 C   0  0  0  0  0  0  0  0  0  0  0  0
   -3.0000    0.0000    0.0000 N   0  0  0  0  0  0  0  0  0  0  0  0
   -3.7500    1.2990    0.0000 C   0  0  0  0  0  0  0  0  0  0  0  0
   -5.2500    1.2990    0.0000 C   0  0  0  0  0  0  0  0  0  0  0  0
   -6.0000    2.5981    0.0000 C   0  0  0  0  0  0  0  0  0  0  0  0
   -7.5000    2.5981    0.0000 N   0  0  0  0  0  0  0  0  0  0  0  0
   -8.2500    1.2990    0.0000 C   0  0  0  0  0  0  0  0  0  0  0  0
   -7.5000    0.0000    0.0000 C   0  0  0  0  0  0  0  0  0  0  0  0
   -6.0000    0.0000    0.0000 N   0  0  0  0  0  0  0  0  0  0  0  0
   -0.7500    1.2990    0.0000 N   0  0  0  0  0  0  0  0  0  0  0  0
    0.7500    1.2990    0.0000 C   0  0  0  0  0  0  0  0  0  0  0  0
  1  2  2  0
  2  3  1  0
  3  4  1  0
  2  5  1  0
  5  6  2  0
  6  7  1  0
  7  8  2  0
  8  9  1  0
  9 10  1  0
 10 11  1  0
 11 12  2  0
 12 13  1  0
 13 14  2  0
 14 15  1  0
 15 16  2  0
  8 17  1  0
 17 18  2  0
 18  5  1  0
 16 11  1  0
M  END
>  <molecule_chembl_id>  (671) 
CHEMBL3655954

>  <canonical_smiles>  (671) 
O=C(NO)c1cnc(NCc2cnccn2)nc1

>  <pchembl_value_mean>  (671) 
6.47

>  <document_chembl_id>  (671) 
CHEMBL3639071

$$$$

     RDKit          2D

 24 26  0  0  0  0  0  0  0  0999 V2000
   -7.5000   -5.1962    0.0000 O   0  0  0  0  0  0  0  0  0  0  0  0
   -6.0000   -5.1962    0.0000 C   0  0  0  0  0  0  0  0  0  0  0  0
   -5.2500   -6.4952    0.0000 N   0  0  0  0  0  0  0  0  0  0  0  0
   -6.0000   -7.7942    0.0000 O   0  0  0  0  0  0  0  0  0  0  0  0
   -5.2500   -3.8971    0.0000 C   0  0  0  0  0  0  0  0  0  0  0  0
   -3.7500   -3.8971    0.0000 C   0  0  0  0  0  0  0  0  0  0  0  0
   -3.0000   -2.5981    0.0000 N   0  0  0  0  0  0  0  0  0  0  0  0
   -3.7500   -1.2990    0.0000 C   0  0  0  0  0  0  0  0  0  0  0  0
   -3.0000    0.0000    0.0000 N   0  0  0  0  0  0  0  0  0  0  0  0
   -3.7500    1.2990    0.0000 C   0  0  0  0  0  0  0  0  0  0  0  0
   -2.3405    1.8121    0.0000 C   0  0  0  0  0  0  0  0  0  0  0  0
   -1.1914    0.8479    0.0000 C   0  0  0  0  0  0  0  0  0  0  0  0
    0.2181    1.3609    0.0000 C   0  0  0  0  0  0  0  0  0  0  0  0
    0.4786    2.8381    0.0000 C   0  0  0  0  0  0  0  0  0  0  0  0
   -0.6704    3.8023    0.0000 C   0  0  0  0  0  0  0  0  0  0  0  0
   -0.4100    5.2795    0.0000 F   0  0  0  0  0  0  0  0  0  0  0  0
   -2.0800    3.2893    0.0000 C   0  0  0  0  0  0  0  0  0  0  0  0
   -4.8991    0.3349    0.0000 C   0  0  0  0  0  0  0  0  0  0  0  0
   -6.3086    0.8479    0.0000 C   0  0  0  0  0  0  0  0  0  0  0  0
   -6.5691    2.3251    0.0000 O   0  0  0  0  0  0  0  0  0  0  0  0
   -5.4200    3.2893    0.0000 C   0  0  0  0  0  0  0  0  0  0  0  0
   -4.0105    2.7762    0.0000 C   0  0  0  0  0  0  0  0  0  0  0  0
   -5.2500   -1.2990    0.0000 N   0  0  0  0  0  0  0  0  0  0  0  0
   -6.0000   -2.5981    0.0000 C   0  0  0  0  0  0  0  0  0  0  0  0
  1  2  2  0
  2  3  1  0
  3  4  1  0
  2  5  1  0
  5  6  2  0
  6  7  1  0
  7  8  2  0
  8  9  1  0
  9 10  1  0
 10 11  1  0
 11 12  2  0
 12 13  1  0
 13 14  2  0
 14 15  1  0
 15 16  1  0
 15 17  2  0
 10 18  1  0
 18 19  1  0
 19 20  1  0
 20 21  1  0
 21 22  1  0
  8 23  1  0
 23 24  2  0
 24  5  1  0
 22 10  1  0
 17 11  1  0
M  END
>  <molecule_chembl_id>  (672) 
CHEMBL3656018

>  <canonical_smiles>  (672) 
O=C(NO)c1cnc(NC2(c3cccc(F)c3)CCOCC2)nc1

>  <pchembl_value_mean>  (672) 
6.48

>  <document_chembl_id>  (672) 
CHEMBL3639071

$$$$

     RDKit          2D

 24 26  0  0  0  0  0  0  0  0999 V2000
   -7.5000   -5.1962    0.0000 O   0  0  0  0  0  0  0  0  0  0  0  0
   -6.0000   -5.1962    0.0000 C   0  0  0  0  0  0  0  0  0  0  0  0
   -5.2500   -6.4952    0.0000 N   0  0  0  0  0  0  0  0  0  0  0  0
   -6.0000   -7.7942    0.0000 O   0  0  0  0  0  0  0  0  0  0  0  0
   -5.2500   -3.8971    0.0000 C   0  0  0  0  0  0  0  0  0  0  0  0
   -3.7500   -3.8971    0.0000 C   0  0  0  0  0  0  0  0  0  0  0  0
   -3.0000   -2.5981    0.0000 N   0  0  0  0  0  0  0  0  0  0  0  0
   -3.7500   -1.2990    0.0000 C   0  0  0  0  0  0  0  0  0  0  0  0
   -3.0000    0.0000    0.0000 N   0  0  0  0  0  0  0  0  0  0  0  0
   -3.7500    1.2990    0.0000 C   0  0  0  0  0  0  0  0  0  0  0  0
   -2.3405    1.8121    0.0000 C   0  0  0  0  0  0  0  0  0  0  0  0
   -1.1914    0.8479    0.0000 C   0  0  0  0  0  0  0  0  0  0  0  0
    0.2181    1.3609    0.0000 C   0  0  0  0  0  0  0  0  0  0  0  0
    0.4786    2.8381    0.0000 C   0  0  0  0  0  0  0  0  0  0  0  0
    1.8882    3.3512    0.0000 F   0  0  0  0  0  0  0  0  0  0  0  0
   -0.6704    3.8023    0.0000 C   0  0  0  0  0  0  0  0  0  0  0  0
   -2.0800    3.2893    0.0000 C   0  0  0  0  0  0  0  0  0  0  0  0
   -4.8991    0.3349    0.0000 C   0  0  0  0  0  0  0  0  0  0  0  0
   -6.3086    0.8479    0.0000 C   0  0  0  0  0  0  0  0  0  0  0  0
   -6.5691    2.3251    0.0000 O   0  0  0  0  0  0  0  0  0  0  0  0
   -5.4200    3.2893    0.0000 C   0  0  0  0  0  0  0  0  0  0  0  0
   -4.0105    2.7762    0.0000 C   0  0  0  0  0  0  0  0  0  0  0  0
   -5.2500   -1.2990    0.0000 N   0  0  0  0  0  0  0  0  0  0  0  0
   -6.0000   -2.5981    0.0000 C   0  0  0  0  0  0  0  0  0  0  0  0
  1  2  2  0
  2  3  1  0
  3  4  1  0
  2  5  1  0
  5  6  2  0
  6  7  1  0
  7  8  2  0
  8  9  1  0
  9 10  1  0
 10 11  1  0
 11 12  2  0
 12 13  1  0
 13 14  2  0
 14 15  1  0
 14 16  1  0
 16 17  2  0
 10 18  1  0
 18 19  1  0
 19 20  1  0
 20 21  1  0
 21 22  1  0
  8 23  1  0
 23 24  2  0
 24  5  1  0
 22 10  1  0
 17 11  1  0
M  END
>  <molecule_chembl_id>  (673) 
CHEMBL3656019

>  <canonical_smiles>  (673) 
O=C(NO)c1cnc(NC2(c3ccc(F)cc3)CCOCC2)nc1

>  <pchembl_value_mean>  (673) 
6.48

>  <document_chembl_id>  (673) 
CHEMBL3639071

$$$$

     RDKit          2D

 35 36  0  0  0  0  0  0  0  0999 V2000
    1.5922    6.6948    0.0000 C   0  0  0  0  0  0  0  0  0  0  0  0
    0.1004    6.8516    0.0000 C   0  0  0  0  0  0  0  0  0  0  0  0
   -0.7813    5.6380    0.0000 C   0  0  0  0  0  0  0  0  0  0  0  0
    0.2369    4.5365    0.0000 N   0  0  0  0  0  0  0  0  0  0  0  0
    0.7561    3.1293    0.0000 C   0  0  0  0  0  0  0  0  0  0  0  0
    2.2376    3.3639    0.0000 O   0  0  0  0  0  0  0  0  0  0  0  0
    0.3943    1.2135    0.0000 C   0  0  0  0  0  0  0  0  0  0  0  0
    1.2760    0.0000    0.0000 C   0  0  0  0  0  0  0  0  0  0  0  0
    0.3943   -1.2135    0.0000 S   0  0  0  0  0  0  0  0  0  0  0  0
   -1.0323   -0.7500    0.0000 C   0  0  0  0  0  0  0  0  0  0  0  0
   -1.0323    0.7500    0.0000 N   0  0  0  0  0  0  0  0  0  0  0  0
   -2.4396   -1.2692    0.0000 C   0  0  0  0  0  0  0  0  0  0  0  0
   -3.9384   -1.2103    0.0000 N   0  0  0  0  0  0  0  0  0  0  0  0
   -5.3006   -0.5823    0.0000 C   0  0  0  0  0  0  0  0  0  0  0  0
   -6.1823   -1.7958    0.0000 O   0  0  0  0  0  0  0  0  0  0  0  0
   -6.3188    0.5192    0.0000 C   0  0  0  0  0  0  0  0  0  0  0  0
   -6.8380    1.9265    0.0000 C   0  0  0  0  0  0  0  0  0  0  0  0
   -8.3195    1.6918    0.0000 C   0  0  0  0  0  0  0  0  0  0  0  0
   -9.2635    2.8575    0.0000 C   0  0  0  0  0  0  0  0  0  0  0  0
  -10.7451    2.6229    0.0000 C   0  0  0  0  0  0  0  0  0  0  0  0
  -11.6890    3.7886    0.0000 C   0  0  0  0  0  0  0  0  0  0  0  0
  -13.1706    3.5540    0.0000 S   0  0  0  0  0  0  0  0  0  0  0  0
  -14.1145    4.7197    0.0000 C   0  0  0  0  0  0  0  0  0  0  0  0
  -15.5961    4.4850    0.0000 C   0  0  0  0  0  0  0  0  0  0  0  0
  -13.5770    6.1200    0.0000 O   0  0  0  0  0  0  0  0  0  0  0  0
   -6.7791    3.4253    0.0000 O   0  0  0  0  0  0  0  0  0  0  0  0
   -6.1511    4.7875    0.0000 C   0  0  0  0  0  0  0  0  0  0  0  0
   -7.3647    5.6692    0.0000 O   0  0  0  0  0  0  0  0  0  0  0  0
   -5.0496    5.8057    0.0000 C   0  0  0  0  0  0  0  0  0  0  0  0
   -5.8334    7.0847    0.0000 C   0  0  0  0  0  0  0  0  0  0  0  0
   -5.1177    8.4029    0.0000 C   0  0  0  0  0  0  0  0  0  0  0  0
   -7.3329    7.0454    0.0000 C   0  0  0  0  0  0  0  0  0  0  0  0
   -3.6424    6.3249    0.0000 N   0  0  0  0  0  0  0  0  0  0  0  0
   -2.1435    6.2660    0.0000 C   0  0  0  0  0  0  0  0  0  0  0  0
   -1.7933    7.7246    0.0000 O   0  0  0  0  0  0  0  0  0  0  0  0
  1  2  1  0
  2  3  2  3
  3  4  1  0
  4  5  1  0
  5  6  2  0
  5  7  1  0
  7  8  2  0
  8  9  1  0
  9 10  1  0
 10 11  2  0
 10 12  1  0
 12 13  1  0
 13 14  1  0
 14 15  2  0
 14 16  1  0
 16 17  1  0
 17 18  1  0
 18 19  2  3
 19 20  1  0
 20 21  1  0
 21 22  1  0
 22 23  1  0
 23 24  1  0
 23 25  2  0
 17 26  1  0
 26 27  1  0
 27 28  2  0
 27 29  1  0
 29 30  1  0
 30 31  1  0
 30 32  1  0
 29 33  1  0
 33 34  1  0
 34 35  2  0
 34  3  1  0
 11  7  1  0
M  END
>  <molecule_chembl_id>  (674) 
CHEMBL3622731

>  <canonical_smiles>  (674) 
CC=C1NC(=O)c2csc(n2)CNC(=O)CC(C=CCCSC(C)=O)OC(=O)C(C(C)C)NC1=O

>  <pchembl_value_mean>  (674) 
6.48

>  <document_chembl_id>  (674) 
CHEMBL3621100

$$$$

     RDKit          2D

 30 33  0  0  0  0  0  0  0  0999 V2000
    7.5000   -7.7942    0.0000 O   0  0  0  0  0  0  0  0  0  0  0  0
    6.0000   -7.7942    0.0000 C   0  0  0  0  0  0  0  0  0  0  0  0
    5.2500   -9.0933    0.0000 N   0  0  0  0  0  0  0  0  0  0  0  0
    6.0000  -10.3923    0.0000 O   0  0  0  0  0  0  0  0  0  0  0  0
    5.2500   -6.4952    0.0000 C   0  0  0  0  0  0  0  0  0  0  0  0
    3.7500   -6.4952    0.0000 C   0  0  0  0  0  0  0  0  0  0  0  0
    3.0000   -5.1962    0.0000 C   0  0  0  0  0  0  0  0  0  0  0  0
    3.7500   -3.8971    0.0000 C   0  0  0  0  0  0  0  0  0  0  0  0
    3.0000   -2.5981    0.0000 C   0  0  0  0  0  0  0  0  0  0  0  0
    1.5000   -2.5981    0.0000 N   0  0  0  0  0  0  0  0  0  0  0  0
    0.7500   -1.2990    0.0000 C   0  0  0  0  0  0  0  0  0  0  0  0
    1.5000    0.0000    0.0000 C   0  0  0  0  0  0  0  0  0  0  0  0
    0.7500    1.2990    0.0000 C   0  0  0  0  0  0  0  0  0  0  0  0
   -0.7500    1.2990    0.0000 C   0  0  0  0  0  0  0  0  0  0  0  0
   -1.5000    0.0000    0.0000 C   0  0  0  0  0  0  0  0  0  0  0  0
   -0.7500   -1.2990    0.0000 C   0  0  0  0  0  0  0  0  0  0  0  0
   -1.5000   -2.5981    0.0000 N   0  0  0  0  0  0  0  0  0  0  0  0
   -0.7500   -3.8971    0.0000 C   0  0  0  0  0  0  0  0  0  0  0  0
   -1.5000   -5.1962    0.0000 O   0  0  0  0  0  0  0  0  0  0  0  0
    0.7500   -3.8971    0.0000 C   0  0  0  0  0  0  0  0  0  0  0  0
    1.5000   -5.1962    0.0000 C   0  0  0  0  0  0  0  0  0  0  0  0
    0.7500   -6.4952    0.0000 C   0  0  0  0  0  0  0  0  0  0  0  0
   -0.7500   -6.4952    0.0000 C   0  0  0  0  0  0  0  0  0  0  0  0
   -1.5000   -7.7942    0.0000 C   0  0  0  0  0  0  0  0  0  0  0  0
   -0.7500   -9.0933    0.0000 C   0  0  0  0  0  0  0  0  0  0  0  0
   -1.5000  -10.3923    0.0000 O   0  0  0  0  0  0  0  0  0  0  0  0
    0.7500   -9.0933    0.0000 C   0  0  0  0  0  0  0  0  0  0  0  0
    1.5000   -7.7942    0.0000 C   0  0  0  0  0  0  0  0  0  0  0  0
    5.2500   -3.8971    0.0000 C   0  0  0  0  0  0  0  0  0  0  0  0
    6.0000   -5.1962    0.0000 C   0  0  0  0  0  0  0  0  0  0  0  0
  1  2  2  0
  2  3  1  0
  3  4  1  0
  2  5  1  0
  5  6  2  0
  6  7  1  0
  7  8  2  0
  8  9  1  0
  9 10  1  0
 10 11  1  0
 11 12  2  0
 12 13  1  0
 13 14  2  0
 14 15  1  0
 15 16  2  0
 16 17  1  0
 17 18  1  0
 18 19  2  0
 18 20  1  0
 20 21  1  0
 21 22  1  0
 22 23  2  0
 23 24  1  0
 24 25  2  0
 25 26  1  0
 25 27  1  0
 27 28  2  0
  8 29  1  0
 29 30  2  0
 30  5  1  0
 20 10  1  0
 28 22  1  0
 16 11  1  0
M  END
>  <molecule_chembl_id>  (675) 
CHEMBL481538

>  <canonical_smiles>  (675) 
O=C(NO)c1ccc(CN2c3ccccc3NC(=O)C2Cc2ccc(O)cc2)cc1

>  <pchembl_value_mean>  (675) 
6.48

>  <document_chembl_id>  (675) 
CHEMBL1143301

$$$$

     RDKit          2D

 45 49  0  0  0  0  0  0  0  0999 V2000
   -7.5000   -5.1962    0.0000 C   0  0  0  0  0  0  0  0  0  0  0  0
   -6.0000   -5.1962    0.0000 C   0  0  0  0  0  0  0  0  0  0  0  0
   -5.2500   -3.8971    0.0000 C   0  0  0  0  0  0  0  0  0  0  0  0
   -6.0000   -2.5981    0.0000 O   0  0  0  0  0  0  0  0  0  0  0  0
   -3.7500   -3.8971    0.0000 N   0  0  0  0  0  0  0  0  0  0  0  0
   -3.0000   -2.5981    0.0000 C   0  0  0  0  0  0  0  0  0  0  0  0
   -1.5000   -2.5981    0.0000 C   0  0  0  0  0  0  0  0  0  0  0  0
   -0.7500   -1.2990    0.0000 C   0  0  0  0  0  0  0  0  0  0  0  0
    0.7500   -1.2990    0.0000 C   0  0  0  0  0  0  0  0  0  0  0  0
    1.5000   -2.5981    0.0000 N   0  0  0  0  0  0  0  0  0  0  0  0
    3.0000   -2.5981    0.0000 C   0  0  0  0  0  0  0  0  0  0  0  0
    3.7500   -3.8971    0.0000 C   0  0  0  0  0  0  0  0  0  0  0  0
    5.2500   -3.8971    0.0000 C   0  0  0  0  0  0  0  0  0  0  0  0
    6.0000   -2.5981    0.0000 C   0  0  0  0  0  0  0  0  0  0  0  0
    7.5000   -2.5981    0.0000 O   0  0  0  0  0  0  0  0  0  0  0  0
    8.2500   -3.8971    0.0000 C   0  0  0  0  0  0  0  0  0  0  0  0
    9.7500   -3.8971    0.0000 C   0  0  0  0  0  0  0  0  0  0  0  0
   10.5000   -5.1962    0.0000 C   0  0  0  0  0  0  0  0  0  0  0  0
   12.0000   -5.1962    0.0000 C   0  0  0  0  0  0  0  0  0  0  0  0
   12.7500   -3.8971    0.0000 C   0  0  0  0  0  0  0  0  0  0  0  0
   12.0000   -2.5981    0.0000 C   0  0  0  0  0  0  0  0  0  0  0  0
   12.7500   -1.2990    0.0000 F   0  0  0  0  0  0  0  0  0  0  0  0
   10.5000   -2.5981    0.0000 C   0  0  0  0  0  0  0  0  0  0  0  0
    5.2500   -1.2990    0.0000 C   0  0  0  0  0  0  0  0  0  0  0  0
    6.0000   -0.0000    0.0000 Cl  0  0  0  0  0  0  0  0  0  0  0  0
    3.7500   -1.2990    0.0000 C   0  0  0  0  0  0  0  0  0  0  0  0
    1.5000    0.0000    0.0000 N   0  0  0  0  0  0  0  0  0  0  0  0
    0.7500    1.2990    0.0000 C   0  0  0  0  0  0  0  0  0  0  0  0
   -0.7500    1.2990    0.0000 N   0  0  0  0  0  0  0  0  0  0  0  0
   -1.5000    0.0000    0.0000 C   0  0  0  0  0  0  0  0  0  0  0  0
   -3.0000    0.0000    0.0000 C   0  0  0  0  0  0  0  0  0  0  0  0
   -3.7500   -1.2990    0.0000 C   0  0  0  0  0  0  0  0  0  0  0  0
   -5.2500   -1.2990    0.0000 O   0  0  0  0  0  0  0  0  0  0  0  0
   -6.0000    0.0000    0.0000 C   0  0  0  0  0  0  0  0  0  0  0  0
   -7.5000    0.0000    0.0000 C   0  0  0  0  0  0  0  0  0  0  0  0
   -8.3817   -1.2135    0.0000 C   0  0  0  0  0  0  0  0  0  0  0  0
   -9.8083   -0.7500    0.0000 N   0  0  0  0  0  0  0  0  0  0  0  0
  -11.0218   -1.6317    0.0000 C   0  0  0  0  0  0  0  0  0  0  0  0
  -12.3921   -1.0216    0.0000 C   0  0  0  0  0  0  0  0  0  0  0  0
  -13.6056   -1.9033    0.0000 C   0  0  0  0  0  0  0  0  0  0  0  0
  -13.4488   -3.3950    0.0000 O   0  0  0  0  0  0  0  0  0  0  0  0
  -14.9760   -1.2931    0.0000 N   0  0  0  0  0  0  0  0  0  0  0  0
  -16.1895   -2.1748    0.0000 O   0  0  0  0  0  0  0  0  0  0  0  0
   -9.8083    0.7500    0.0000 N   0  0  0  0  0  0  0  0  0  0  0  0
   -8.3817    1.2135    0.0000 N   0  0  0  0  0  0  0  0  0  0  0  0
  1  2  2  0
  2  3  1  0
  3  4  2  0
  3  5  1  0
  5  6  1  0
  6  7  2  0
  7  8  1  0
  8  9  2  0
  9 10  1  0
 10 11  1  0
 11 12  2  0
 12 13  1  0
 13 14  2  0
 14 15  1  0
 15 16  1  0
 16 17  1  0
 17 18  2  0
 18 19  1  0
 19 20  2  0
 20 21  1  0
 21 22  1  0
 21 23  2  0
 14 24  1  0
 24 25  1  0
 24 26  2  0
  9 27  1  0
 27 28  2  0
 28 29  1  0
 29 30  2  0
 30 31  1  0
 31 32  2  0
 32 33  1  0
 33 34  1  0
 34 35  1  0
 35 36  2  0
 36 37  1  0
 37 38  1  0
 38 39  1  0
 39 40  1  0
 40 41  2  0
 40 42  1  0
 42 43  1  0
 37 44  1  0
 44 45  2  0
 32  6  1  0
 45 35  1  0
 30  8  1  0
 26 11  1  0
 23 17  1  0
M  END
>  <molecule_chembl_id>  (676) 
CHEMBL4758842

>  <canonical_smiles>  (676) 
C=CC(=O)Nc1cc2c(Nc3ccc(OCc4cccc(F)c4)c(Cl)c3)ncnc2cc1OCc1cn(CCC(=O)NO)nn1

>  <pchembl_value_mean>  (676) 
6.48

>  <document_chembl_id>  (676) 
CHEMBL4732162

$$$$

     RDKit          2D

 20 21  0  0  0  0  0  0  0  0999 V2000
    4.5000    0.0000    0.0000 N   0  0  0  0  0  0  0  0  0  0  0  0
    3.0000    0.0000    0.0000 C   0  0  0  0  0  0  0  0  0  0  0  0
    1.5000    0.0000    0.0000 C   0  0  0  0  0  0  0  0  0  0  0  0
    0.7500   -1.2990    0.0000 C   0  0  0  0  0  0  0  0  0  0  0  0
   -0.7500   -1.2990    0.0000 C   0  0  0  0  0  0  0  0  0  0  0  0
   -1.5000    0.0000    0.0000 C   0  0  0  0  0  0  0  0  0  0  0  0
   -3.0000    0.0000    0.0000 C   0  0  0  0  0  0  0  0  0  0  0  0
   -3.7500    1.2990    0.0000 C   0  0  0  0  0  0  0  0  0  0  0  0
   -5.2500    1.2990    0.0000 C   0  0  0  0  0  0  0  0  0  0  0  0
   -6.0000    0.0000    0.0000 C   0  0  0  0  0  0  0  0  0  0  0  0
   -7.5000    0.0000    0.0000 C   0  0  0  0  0  0  0  0  0  0  0  0
   -8.2500    1.2990    0.0000 C   0  0  0  0  0  0  0  0  0  0  0  0
   -9.7500    1.2990    0.0000 C   0  0  0  0  0  0  0  0  0  0  0  0
  -10.5000    0.0000    0.0000 O   0  0  0  0  0  0  0  0  0  0  0  0
  -10.5000    2.5981    0.0000 N   0  0  0  0  0  0  0  0  0  0  0  0
  -12.0000    2.5981    0.0000 O   0  0  0  0  0  0  0  0  0  0  0  0
   -5.2500   -1.2990    0.0000 C   0  0  0  0  0  0  0  0  0  0  0  0
   -3.7500   -1.2990    0.0000 C   0  0  0  0  0  0  0  0  0  0  0  0
   -0.7500    1.2990    0.0000 C   0  0  0  0  0  0  0  0  0  0  0  0
    0.7500    1.2990    0.0000 C   0  0  0  0  0  0  0  0  0  0  0  0
  1  2  3  0
  2  3  1  0
  3  4  2  0
  4  5  1  0
  5  6  2  0
  6  7  1  0
  7  8  2  0
  8  9  1  0
  9 10  2  0
 10 11  1  0
 11 12  2  3
 12 13  1  0
 13 14  2  0
 13 15  1  0
 15 16  1  0
 10 17  1  0
 17 18  2  0
  6 19  1  0
 19 20  2  0
 20  3  1  0
 18  7  1  0
M  END
>  <molecule_chembl_id>  (677) 
CHEMBL538710

>  <canonical_smiles>  (677) 
N#Cc1ccc(-c2ccc(C=CC(=O)NO)cc2)cc1

>  <pchembl_value_mean>  (677) 
6.48

>  <document_chembl_id>  (677) 
CHEMBL1158371

$$$$

     RDKit          2D

 19 20  0  0  0  0  0  0  0  0999 V2000
    3.7500    1.2990    0.0000 O   0  0  0  0  0  0  0  0  0  0  0  0
    3.0000    0.0000    0.0000 C   0  0  0  0  0  0  0  0  0  0  0  0
    3.7500   -1.2990    0.0000 N   0  0  0  0  0  0  0  0  0  0  0  0
    5.2500   -1.2990    0.0000 O   0  0  0  0  0  0  0  0  0  0  0  0
    1.5000    0.0000    0.0000 C   0  0  0  0  0  0  0  0  0  0  0  0
    0.7500   -1.2990    0.0000 C   0  0  0  0  0  0  0  0  0  0  0  0
   -0.7500   -1.2990    0.0000 C   0  0  0  0  0  0  0  0  0  0  0  0
   -1.5000    0.0000    0.0000 C   0  0  0  0  0  0  0  0  0  0  0  0
   -3.0000    0.0000    0.0000 C   0  0  0  0  0  0  0  0  0  0  0  0
   -3.7500   -1.2990    0.0000 O   0  0  0  0  0  0  0  0  0  0  0  0
   -3.7500    1.2990    0.0000 N   0  0  0  0  0  0  0  0  0  0  0  0
   -5.2500    1.2990    0.0000 C   0  0  0  0  0  0  0  0  0  0  0  0
   -6.0000    2.5981    0.0000 C   0  0  0  0  0  0  0  0  0  0  0  0
   -7.5000    2.5981    0.0000 C   0  0  0  0  0  0  0  0  0  0  0  0
   -8.2500    1.2990    0.0000 C   0  0  0  0  0  0  0  0  0  0  0  0
   -7.5000    0.0000    0.0000 C   0  0  0  0  0  0  0  0  0  0  0  0
   -6.0000    0.0000    0.0000 C   0  0  0  0  0  0  0  0  0  0  0  0
   -0.7500    1.2990    0.0000 C   0  0  0  0  0  0  0  0  0  0  0  0
    0.7500    1.2990    0.0000 C   0  0  0  0  0  0  0  0  0  0  0  0
  1  2  2  0
  2  3  1  0
  3  4  1  0
  2  5  1  0
  5  6  2  0
  6  7  1  0
  7  8  2  0
  8  9  1  0
  9 10  2  0
  9 11  1  0
 11 12  1  0
 12 13  2  0
 13 14  1  0
 14 15  2  0
 15 16  1  0
 16 17  2  0
  8 18  1  0
 18 19  2  0
 19  5  1  0
 17 12  1  0
M  END
>  <molecule_chembl_id>  (678) 
CHEMBL2333342

>  <canonical_smiles>  (678) 
O=C(NO)c1ccc(C(=O)Nc2ccccc2)cc1

>  <pchembl_value_mean>  (678) 
6.49

>  <document_chembl_id>  (678) 
CHEMBL2331470

$$$$

     RDKit          2D

 58 63  0  0  0  0  0  0  0  0999 V2000
    5.9157   -6.1668    0.0000 C   0  0  0  0  0  0  0  0  0  0  0  0
    4.4738   -6.5802    0.0000 C   0  0  0  0  0  0  0  0  0  0  0  0
    4.1110   -8.0357    0.0000 C   0  0  0  0  0  0  0  0  0  0  0  0
    5.6073   -8.1403    0.0000 O   0  0  0  0  0  0  0  0  0  0  0  0
    4.2677   -9.5275    0.0000 C   0  0  0  0  0  0  0  0  0  0  0  0
    5.6381  -10.1376    0.0000 O   0  0  0  0  0  0  0  0  0  0  0  0
    3.0542  -10.4092    0.0000 O   0  0  0  0  0  0  0  0  0  0  0  0
    1.6839   -9.7990    0.0000 C   0  0  0  0  0  0  0  0  0  0  0  0
    1.5271   -8.3073    0.0000 C   0  0  0  0  0  0  0  0  0  0  0  0
    2.7406   -7.4256    0.0000 C   0  0  0  0  0  0  0  0  0  0  0  0
    2.5838   -5.9338    0.0000 C   0  0  0  0  0  0  0  0  0  0  0  0
    1.2135   -5.3237    0.0000 C   0  0  0  0  0  0  0  0  0  0  0  0
   -0.0000   -6.2054    0.0000 N   0  0  0  0  0  0  0  0  0  0  0  0
    0.1568   -7.6972    0.0000 C   0  0  0  0  0  0  0  0  0  0  0  0
   -1.0567   -8.5788    0.0000 O   0  0  0  0  0  0  0  0  0  0  0  0
   -1.2135   -5.3237    0.0000 C   0  0  0  0  0  0  0  0  0  0  0  0
   -0.7500   -3.8971    0.0000 C   0  0  0  0  0  0  0  0  0  0  0  0
    0.7500   -3.8971    0.0000 C   0  0  0  0  0  0  0  0  0  0  0  0
    1.5000   -2.5981    0.0000 N   0  0  0  0  0  0  0  0  0  0  0  0
    0.7500   -1.2990    0.0000 C   0  0  0  0  0  0  0  0  0  0  0  0
    1.5000    0.0000    0.0000 C   0  0  0  0  0  0  0  0  0  0  0  0
    0.7500    1.2990    0.0000 C   0  0  0  0  0  0  0  0  0  0  0  0
   -0.7500    1.2990    0.0000 C   0  0  0  0  0  0  0  0  0  0  0  0
   -1.5000    0.0000    0.0000 C   0  0  0  0  0  0  0  0  0  0  0  0
   -0.7500   -1.2990    0.0000 C   0  0  0  0  0  0  0  0  0  0  0  0
   -1.5000   -2.5981    0.0000 C   0  0  0  0  0  0  0  0  0  0  0  0
   -3.0000   -2.5981    0.0000 C   0  0  0  0  0  0  0  0  0  0  0  0
   -3.7500   -1.2990    0.0000 N   0  0  0  0  0  0  0  0  0  0  0  0
   -5.2500   -1.2990    0.0000 O   0  0  0  0  0  0  0  0  0  0  0  0
   -6.0000    0.0000    0.0000 C   0  0  0  0  0  0  0  0  0  0  0  0
   -7.5000    0.0000    0.0000 C   0  0  0  0  0  0  0  0  0  0  0  0
   -8.2500    1.2990    0.0000 C   0  0  0  0  0  0  0  0  0  0  0  0
   -9.7500    1.2990    0.0000 C   0  0  0  0  0  0  0  0  0  0  0  0
  -10.5000    2.5981    0.0000 C   0  0  0  0  0  0  0  0  0  0  0  0
  -12.0000    2.5981    0.0000 C   0  0  0  0  0  0  0  0  0  0  0  0
  -12.7500    1.2990    0.0000 O   0  0  0  0  0  0  0  0  0  0  0  0
  -12.7500    3.8971    0.0000 N   0  0  0  0  0  0  0  0  0  0  0  0
  -14.2500    3.8971    0.0000 C   0  0  0  0  0  0  0  0  0  0  0  0
  -15.0000    5.1962    0.0000 C   0  0  0  0  0  0  0  0  0  0  0  0
  -16.5000    5.1962    0.0000 S   0  0  0  0  0  0  0  0  0  0  0  0
  -17.2500    6.4952    0.0000 S   0  0  0  0  0  0  0  0  0  0  0  0
  -18.7500    6.4952    0.0000 C   0  0  0  0  0  0  0  0  0  0  0  0
  -19.5000    7.7942    0.0000 C   0  0  0  0  0  0  0  0  0  0  0  0
  -21.0000    7.7942    0.0000 N   0  0  0  0  0  0  0  0  0  0  0  0
  -21.7500    9.0933    0.0000 C   0  0  0  0  0  0  0  0  0  0  0  0
  -21.0000   10.3923    0.0000 O   0  0  0  0  0  0  0  0  0  0  0  0
  -23.2500    9.0933    0.0000 C   0  0  0  0  0  0  0  0  0  0  0  0
  -24.0000   10.3923    0.0000 C   0  0  0  0  0  0  0  0  0  0  0  0
  -25.5000   10.3923    0.0000 C   0  0  0  0  0  0  0  0  0  0  0  0
  -26.2500   11.6913    0.0000 C   0  0  0  0  0  0  0  0  0  0  0  0
  -27.7500   11.6913    0.0000 C   0  0  0  0  0  0  0  0  0  0  0  0
  -28.5000   10.3923    0.0000 C   0  0  0  0  0  0  0  0  0  0  0  0
  -30.0000   10.3923    0.0000 O   0  0  0  0  0  0  0  0  0  0  0  0
  -27.7500    9.0933    0.0000 C   0  0  0  0  0  0  0  0  0  0  0  0
  -28.5000    7.7942    0.0000 Br  0  0  0  0  0  0  0  0  0  0  0  0
  -26.2500    9.0933    0.0000 C   0  0  0  0  0  0  0  0  0  0  0  0
  -24.0000    7.7942    0.0000 N   0  0  0  0  0  0  0  0  0  0  0  0
  -25.5000    7.7942    0.0000 O   0  0  0  0  0  0  0  0  0  0  0  0
  1  2  1  0
  2  3  1  0
  3  4  1  0
  3  5  1  0
  5  6  2  0
  5  7  1  0
  7  8  1  0
  8  9  1  0
  9 10  2  0
 10 11  1  0
 11 12  2  0
 12 13  1  0
 13 14  1  0
 14 15  2  0
 13 16  1  0
 16 17  1  0
 17 18  2  0
 18 19  1  0
 19 20  2  0
 20 21  1  0
 21 22  2  0
 22 23  1  0
 23 24  2  0
 24 25  1  0
 25 26  2  0
 26 27  1  0
 27 28  2  3
 28 29  1  0
 29 30  1  0
 30 31  1  0
 31 32  1  0
 32 33  1  0
 33 34  1  0
 34 35  1  0
 35 36  2  0
 35 37  1  0
 37 38  1  0
 38 39  1  0
 39 40  1  0
 40 41  1  0
 41 42  1  0
 42 43  1  0
 43 44  1  0
 44 45  1  0
 45 46  2  0
 45 47  1  0
 47 48  1  0
 48 49  1  0
 49 50  2  0
 50 51  1  0
 51 52  2  0
 52 53  1  0
 52 54  1  0
 54 55  1  0
 54 56  2  0
 47 57  2  3
 57 58  1  0
 10  3  1  0
 18 12  1  0
 25 20  1  0
 56 49  1  0
 14  9  1  0
 26 17  1  0
M  END
>  <molecule_chembl_id>  (679) 
CHEMBL4290191

>  <canonical_smiles>  (679) 
CCC1(O)C(=O)OCc2c1cc1n(c2=O)Cc2c-1nc1ccccc1c2C=NOCCCCCC(=O)NCCSSCCNC(=O)C(Cc1ccc(O)c(Br)c1)=NO

>  <pchembl_value_mean>  (679) 
6.49

>  <document_chembl_id>  (679) 
CHEMBL4251569

$$$$

     RDKit          2D

 26 28  0  0  0  0  0  0  0  0999 V2000
    5.2500   -1.2990    0.0000 C   0  0  0  0  0  0  0  0  0  0  0  0
    3.7500   -1.2990    0.0000 C   0  0  0  0  0  0  0  0  0  0  0  0
    3.0000    0.0000    0.0000 O   0  0  0  0  0  0  0  0  0  0  0  0
    1.5000    0.0000    0.0000 N   0  0  0  0  0  0  0  0  0  0  0  0
    0.7500   -1.2990    0.0000 C   0  0  0  0  0  0  0  0  0  0  0  0
   -0.7500   -1.2990    0.0000 C   0  0  0  0  0  0  0  0  0  0  0  0
   -1.5000    0.0000    0.0000 C   0  0  0  0  0  0  0  0  0  0  0  0
   -2.6491    0.9642    0.0000 N   0  0  0  0  0  0  0  0  0  0  0  0
   -2.3886    2.4414    0.0000 C   0  0  0  0  0  0  0  0  0  0  0  0
   -0.9791    2.9544    0.0000 N   0  0  0  0  0  0  0  0  0  0  0  0
   -0.7186    4.4316    0.0000 C   0  0  0  0  0  0  0  0  0  0  0  0
   -1.8676    5.3958    0.0000 C   0  0  0  0  0  0  0  0  0  0  0  0
   -1.6072    6.8730    0.0000 C   0  0  0  0  0  0  0  0  0  0  0  0
   -2.7562    7.8372    0.0000 O   0  0  0  0  0  0  0  0  0  0  0  0
   -0.1976    7.3861    0.0000 N   0  0  0  0  0  0  0  0  0  0  0  0
    0.0628    8.8633    0.0000 O   0  0  0  0  0  0  0  0  0  0  0  0
   -3.2772    4.8828    0.0000 C   0  0  0  0  0  0  0  0  0  0  0  0
   -3.5377    3.4056    0.0000 N   0  0  0  0  0  0  0  0  0  0  0  0
   -2.6491   -0.9642    0.0000 C   0  0  0  0  0  0  0  0  0  0  0  0
   -4.0586   -0.4512    0.0000 C   0  0  0  0  0  0  0  0  0  0  0  0
   -5.2077   -1.4153    0.0000 C   0  0  0  0  0  0  0  0  0  0  0  0
   -4.9472   -2.8925    0.0000 C   0  0  0  0  0  0  0  0  0  0  0  0
   -3.5377   -3.4056    0.0000 C   0  0  0  0  0  0  0  0  0  0  0  0
   -2.3886   -2.4414    0.0000 C   0  0  0  0  0  0  0  0  0  0  0  0
   -0.7500    1.2990    0.0000 C   0  0  0  0  0  0  0  0  0  0  0  0
    0.7500    1.2990    0.0000 C   0  0  0  0  0  0  0  0  0  0  0  0
  1  2  1  0
  2  3  1  0
  3  4  1  0
  4  5  1  0
  5  6  1  0
  6  7  1  0
  7  8  1  0
  8  9  1  0
  9 10  2  0
 10 11  1  0
 11 12  2  0
 12 13  1  0
 13 14  2  0
 13 15  1  0
 15 16  1  0
 12 17  1  0
 17 18  2  0
  7 19  1  0
 19 20  2  0
 20 21  1  0
 21 22  2  0
 22 23  1  0
 23 24  2  0
  7 25  1  0
 25 26  1  0
 26  4  1  0
 18  9  1  0
 24 19  1  0
M  END
>  <molecule_chembl_id>  (680) 
CHEMBL3901374

>  <canonical_smiles>  (680) 
CCON1CCC(Nc2ncc(C(=O)NO)cn2)(c2ccccc2)CC1

>  <pchembl_value_mean>  (680) 
6.49

>  <document_chembl_id>  (680) 
CHEMBL3886590

$$$$

     RDKit          2D

 18 19  0  0  0  0  0  0  0  0999 V2000
    3.7500    1.2990    0.0000 O   0  0  0  0  0  0  0  0  0  0  0  0
    3.0000    0.0000    0.0000 C   0  0  0  0  0  0  0  0  0  0  0  0
    3.7500   -1.2990    0.0000 N   0  0  0  0  0  0  0  0  0  0  0  0
    5.2500   -1.2990    0.0000 O   0  0  0  0  0  0  0  0  0  0  0  0
    1.5000    0.0000    0.0000 C   0  0  0  0  0  0  0  0  0  0  0  0
    0.7500   -1.2990    0.0000 C   0  0  0  0  0  0  0  0  0  0  0  0
   -0.7500   -1.2990    0.0000 N   0  0  0  0  0  0  0  0  0  0  0  0
   -1.5000    0.0000    0.0000 C   0  0  0  0  0  0  0  0  0  0  0  0
   -3.0000    0.0000    0.0000 N   0  0  0  0  0  0  0  0  0  0  0  0
   -3.7500    1.2990    0.0000 C   0  0  0  0  0  0  0  0  0  0  0  0
   -5.2500    1.2990    0.0000 C   0  0  0  0  0  0  0  0  0  0  0  0
   -6.0000    2.5981    0.0000 C   0  0  0  0  0  0  0  0  0  0  0  0
   -7.5000    2.5981    0.0000 C   0  0  0  0  0  0  0  0  0  0  0  0
   -8.2500    1.2990    0.0000 C   0  0  0  0  0  0  0  0  0  0  0  0
   -7.5000    0.0000    0.0000 C   0  0  0  0  0  0  0  0  0  0  0  0
   -6.0000    0.0000    0.0000 N   0  0  0  0  0  0  0  0  0  0  0  0
   -0.7500    1.2990    0.0000 N   0  0  0  0  0  0  0  0  0  0  0  0
    0.7500    1.2990    0.0000 C   0  0  0  0  0  0  0  0  0  0  0  0
  1  2  2  0
  2  3  1  0
  3  4  1  0
  2  5  1  0
  5  6  2  0
  6  7  1  0
  7  8  2  0
  8  9  1  0
  9 10  1  0
 10 11  1  0
 11 12  2  0
 12 13  1  0
 13 14  2  0
 14 15  1  0
 15 16  2  0
  8 17  1  0
 17 18  2  0
 18  5  1  0
 16 11  1  0
M  END
>  <molecule_chembl_id>  (681) 
CHEMBL3655985

>  <canonical_smiles>  (681) 
O=C(NO)c1cnc(NCc2ccccn2)nc1

>  <pchembl_value_mean>  (681) 
6.5

>  <document_chembl_id>  (681) 
CHEMBL3639071

$$$$

     RDKit          2D

 50 54  0  0  0  0  0  0  0  0999 V2000
   14.7990   -8.5442    0.0000 C   0  0  0  0  0  0  0  0  0  0  0  0
   13.2990   -8.5442    0.0000 C   0  0  0  0  0  0  0  0  0  0  0  0
   12.5490   -7.2452    0.0000 C   0  0  0  0  0  0  0  0  0  0  0  0
   13.2990   -5.9462    0.0000 O   0  0  0  0  0  0  0  0  0  0  0  0
   11.0490   -7.2452    0.0000 C   0  0  0  0  0  0  0  0  0  0  0  0
   10.2990   -5.9462    0.0000 C   0  0  0  0  0  0  0  0  0  0  0  0
    8.7990   -5.9462    0.0000 C   0  0  0  0  0  0  0  0  0  0  0  0
    8.0490   -4.6471    0.0000 C   0  0  0  0  0  0  0  0  0  0  0  0
    6.5490   -4.6471    0.0000 C   0  0  0  0  0  0  0  0  0  0  0  0
    5.7990   -3.3481    0.0000 C   0  0  0  0  0  0  0  0  0  0  0  0
    4.2990   -3.3481    0.0000 N   0  0  0  0  0  0  0  0  0  0  0  0
    3.5490   -2.0490    0.0000 C   0  0  0  0  0  0  0  0  0  0  0  0
    4.2990   -0.7500    0.0000 O   0  0  0  0  0  0  0  0  0  0  0  0
    2.0490   -2.0490    0.0000 C   0  0  0  0  0  0  0  0  0  0  0  0
    0.7500   -2.7990    0.0000 C   0  0  0  0  0  0  0  0  0  0  0  0
    0.7500   -1.2990    0.0000 C   0  0  0  0  0  0  0  0  0  0  0  0
    1.5000    0.0000    0.0000 C   0  0  0  0  0  0  0  0  0  0  0  0
    0.7500    1.2990    0.0000 C   0  0  0  0  0  0  0  0  0  0  0  0
   -0.7500    1.2990    0.0000 N   0  0  0  0  0  0  0  0  0  0  0  0
   -1.5000    2.5981    0.0000 C   0  0  0  0  0  0  0  0  0  0  0  0
   -0.7500    3.8971    0.0000 C   0  0  0  0  0  0  0  0  0  0  0  0
   -1.5000    0.0000    0.0000 C   0  0  0  0  0  0  0  0  0  0  0  0
   -0.7500   -1.2990    0.0000 C   0  0  0  0  0  0  0  0  0  0  0  0
    6.5490   -2.0490    0.0000 C   0  0  0  0  0  0  0  0  0  0  0  0
    5.9389   -0.6787    0.0000 N   0  0  0  0  0  0  0  0  0  0  0  0
    7.0537    0.3250    0.0000 C   0  0  0  0  0  0  0  0  0  0  0  0
    8.3527   -0.4250    0.0000 C   0  0  0  0  0  0  0  0  0  0  0  0
    9.7230    0.1851    0.0000 C   0  0  0  0  0  0  0  0  0  0  0  0
   10.9365   -0.6966    0.0000 C   0  0  0  0  0  0  0  0  0  0  0  0
   10.7797   -2.1884    0.0000 F   0  0  0  0  0  0  0  0  0  0  0  0
   12.3069   -0.0865    0.0000 C   0  0  0  0  0  0  0  0  0  0  0  0
   12.4636    1.4053    0.0000 C   0  0  0  0  0  0  0  0  0  0  0  0
   13.8340    2.0154    0.0000 C   0  0  0  0  0  0  0  0  0  0  0  0
   13.9908    3.5072    0.0000 O   0  0  0  0  0  0  0  0  0  0  0  0
   15.0475    1.1337    0.0000 N   0  0  0  0  0  0  0  0  0  0  0  0
   16.4178    1.7438    0.0000 C   0  0  0  0  0  0  0  0  0  0  0  0
   17.6313    0.8621    0.0000 C   0  0  0  0  0  0  0  0  0  0  0  0
   19.0016    1.4723    0.0000 C   0  0  0  0  0  0  0  0  0  0  0  0
   20.2152    0.5906    0.0000 C   0  0  0  0  0  0  0  0  0  0  0  0
   21.4287   -0.2911    0.0000 F   0  0  0  0  0  0  0  0  0  0  0  0
   19.3335   -0.6230    0.0000 F   0  0  0  0  0  0  0  0  0  0  0  0
   21.0969    1.8041    0.0000 F   0  0  0  0  0  0  0  0  0  0  0  0
   19.1584    2.9640    0.0000 C   0  0  0  0  0  0  0  0  0  0  0  0
   17.9449    3.8457    0.0000 C   0  0  0  0  0  0  0  0  0  0  0  0
   16.5746    3.2356    0.0000 N   0  0  0  0  0  0  0  0  0  0  0  0
   11.2501    2.2870    0.0000 C   0  0  0  0  0  0  0  0  0  0  0  0
    9.8798    1.6769    0.0000 C   0  0  0  0  0  0  0  0  0  0  0  0
    8.6663    2.5585    0.0000 O   0  0  0  0  0  0  0  0  0  0  0  0
    8.8231    4.0503    0.0000 C   0  0  0  0  0  0  0  0  0  0  0  0
    8.0408   -1.8922    0.0000 N   0  0  0  0  0  0  0  0  0  0  0  0
  1  2  1  0
  2  3  1  0
  3  4  2  0
  3  5  1  0
  5  6  1  0
  6  7  1  0
  7  8  1  0
  8  9  1  0
  9 10  1  0
 10 11  1  0
 11 12  1  0
 12 13  2  0
 12 14  1  0
 14 15  1  0
 15 16  1  0
 16 17  1  0
 17 18  1  0
 18 19  1  0
 19 20  1  0
 20 21  1  0
 19 22  1  0
 22 23  1  0
 10 24  1  0
 24 25  2  0
 25 26  1  0
 26 27  2  0
 27 28  1  0
 28 29  2  0
 29 30  1  0
 29 31  1  0
 31 32  2  0
 32 33  1  0
 33 34  2  0
 33 35  1  0
 35 36  1  0
 36 37  2  0
 37 38  1  0
 38 39  1  0
 39 40  1  0
 39 41  1  0
 39 42  1  0
 38 43  2  0
 43 44  1  0
 44 45  2  0
 32 46  1  0
 46 47  2  0
 47 48  1  0
 48 49  1  0
 27 50  1  0
 16 14  1  0
 50 24  1  0
 23 16  1  0
 47 28  1  0
 45 36  1  0
M  END
>  <molecule_chembl_id>  (682) 
CHEMBL4789871

>  <canonical_smiles>  (682) 
CCC(=O)CCCCCC(NC(=O)C1CC12CCN(CC)CC2)c1ncc(-c2c(F)cc(C(=O)Nc3cc(C(F)(F)F)ccn3)cc2OC)[nH]1

>  <pchembl_value_mean>  (682) 
6.5

>  <document_chembl_id>  (682) 
CHEMBL4680369

$$$$

     RDKit          2D

 35 38  0  0  0  0  0  0  0  0999 V2000
    3.0000    0.0000    0.0000 N   0  0  0  0  0  0  0  0  0  0  0  0
    1.5000    0.0000    0.0000 C   0  0  0  0  0  0  0  0  0  0  0  0
    0.7500   -1.2990    0.0000 C   0  0  0  0  0  0  0  0  0  0  0  0
   -0.7500   -1.2990    0.0000 C   0  0  0  0  0  0  0  0  0  0  0  0
   -1.5000    0.0000    0.0000 C   0  0  0  0  0  0  0  0  0  0  0  0
   -0.7500    1.2990    0.0000 C   0  0  0  0  0  0  0  0  0  0  0  0
    0.7500    1.2990    0.0000 C   0  0  0  0  0  0  0  0  0  0  0  0
    1.5000    2.5981    0.0000 N   0  0  0  0  0  0  0  0  0  0  0  0
    0.7500    3.8971    0.0000 C   0  0  0  0  0  0  0  0  0  0  0  0
   -0.7500    3.8971    0.0000 O   0  0  0  0  0  0  0  0  0  0  0  0
    1.5000    5.1962    0.0000 C   0  0  0  0  0  0  0  0  0  0  0  0
    3.0000    5.1962    0.0000 C   0  0  0  0  0  0  0  0  0  0  0  0
    3.7500    6.4952    0.0000 C   0  0  0  0  0  0  0  0  0  0  0  0
    3.0000    7.7942    0.0000 C   0  0  0  0  0  0  0  0  0  0  0  0
    3.7500    9.0933    0.0000 C   0  0  0  0  0  0  0  0  0  0  0  0
    5.2500    9.0933    0.0000 C   0  0  0  0  0  0  0  0  0  0  0  0
    6.0000    7.7942    0.0000 O   0  0  0  0  0  0  0  0  0  0  0  0
    6.0000   10.3923    0.0000 N   0  0  0  0  0  0  0  0  0  0  0  0
    7.5000   10.3923    0.0000 C   0  0  0  0  0  0  0  0  0  0  0  0
    8.2500    9.0933    0.0000 C   0  0  0  0  0  0  0  0  0  0  0  0
    9.7500    9.0933    0.0000 C   0  0  0  0  0  0  0  0  0  0  0  0
   10.5000   10.3923    0.0000 C   0  0  0  0  0  0  0  0  0  0  0  0
    9.7500   11.6913    0.0000 C   0  0  0  0  0  0  0  0  0  0  0  0
    8.2500   11.6913    0.0000 C   0  0  0  0  0  0  0  0  0  0  0  0
    3.0000   10.3923    0.0000 C   0  0  0  0  0  0  0  0  0  0  0  0
    1.5000   10.3923    0.0000 O   0  0  0  0  0  0  0  0  0  0  0  0
    3.7500   11.6913    0.0000 N   0  0  0  0  0  0  0  0  0  0  0  0
    3.0000   12.9904    0.0000 C   0  0  0  0  0  0  0  0  0  0  0  0
    3.7500   14.2894    0.0000 C   0  0  0  0  0  0  0  0  0  0  0  0
    3.0000   15.5885    0.0000 C   0  0  0  0  0  0  0  0  0  0  0  0
    1.5000   15.5885    0.0000 C   0  0  0  0  0  0  0  0  0  0  0  0
    0.7500   14.2894    0.0000 C   0  0  0  0  0  0  0  0  0  0  0  0
    1.5000   12.9904    0.0000 C   0  0  0  0  0  0  0  0  0  0  0  0
    1.5000    7.7942    0.0000 C   0  0  0  0  0  0  0  0  0  0  0  0
    0.7500    6.4952    0.0000 C   0  0  0  0  0  0  0  0  0  0  0  0
  1  2  1  0
  2  3  2  0
  3  4  1  0
  4  5  2  0
  5  6  1  0
  6  7  2  0
  7  8  1  0
  8  9  1  0
  9 10  2  0
  9 11  1  0
 11 12  2  0
 12 13  1  0
 13 14  2  0
 14 15  1  0
 15 16  1  0
 16 17  2  0
 16 18  1  0
 18 19  1  0
 19 20  2  0
 20 21  1  0
 21 22  2  0
 22 23  1  0
 23 24  2  0
 15 25  1  0
 25 26  2  0
 25 27  1  0
 27 28  1  0
 28 29  2  0
 29 30  1  0
 30 31  2  0
 31 32  1  0
 32 33  2  0
 14 34  1  0
 34 35  2  0
  7  2  1  0
 35 11  1  0
 24 19  1  0
 33 28  1  0
M  END
>  <molecule_chembl_id>  (683) 
CHEMBL251144

>  <canonical_smiles>  (683) 
Nc1ccccc1NC(=O)c1ccc(C(C(=O)Nc2ccccc2)C(=O)Nc2ccccc2)cc1

>  <pchembl_value_mean>  (683) 
6.5

>  <document_chembl_id>  (683) 
CHEMBL1140029

$$$$

     RDKit          2D

 47 52  0  0  0  0  0  0  0  0999 V2000
    1.9979  -12.6093    0.0000 C   0  0  0  0  0  0  0  0  0  0  0  0
    2.3097  -11.1421    0.0000 O   0  0  0  0  0  0  0  0  0  0  0  0
    1.1950  -10.1384    0.0000 C   0  0  0  0  0  0  0  0  0  0  0  0
   -0.2316  -10.6019    0.0000 C   0  0  0  0  0  0  0  0  0  0  0  0
   -1.3463   -9.5982    0.0000 C   0  0  0  0  0  0  0  0  0  0  0  0
   -1.0344   -8.1310    0.0000 C   0  0  0  0  0  0  0  0  0  0  0  0
   -2.1491   -7.1273    0.0000 C   0  0  0  0  0  0  0  0  0  0  0  0
   -3.5757   -7.5908    0.0000 O   0  0  0  0  0  0  0  0  0  0  0  0
   -1.8373   -5.6601    0.0000 N   0  0  0  0  0  0  0  0  0  0  0  0
   -2.9520   -4.6564    0.0000 C   0  0  0  0  0  0  0  0  0  0  0  0
   -2.6401   -3.1891    0.0000 C   0  0  0  0  0  0  0  0  0  0  0  0
   -1.2135   -2.7256    0.0000 C   0  0  0  0  0  0  0  0  0  0  0  0
   -0.0000   -3.6073    0.0000 C   0  0  0  0  0  0  0  0  0  0  0  0
    1.2135   -2.7256    0.0000 N   0  0  0  0  0  0  0  0  0  0  0  0
    0.7500   -1.2990    0.0000 C   0  0  0  0  0  0  0  0  0  0  0  0
    1.5000    0.0000    0.0000 C   0  0  0  0  0  0  0  0  0  0  0  0
    0.7500    1.2990    0.0000 C   0  0  0  0  0  0  0  0  0  0  0  0
   -0.7500    1.2990    0.0000 C   0  0  0  0  0  0  0  0  0  0  0  0
   -1.5000    0.0000    0.0000 C   0  0  0  0  0  0  0  0  0  0  0  0
   -0.7500   -1.2990    0.0000 C   0  0  0  0  0  0  0  0  0  0  0  0
   -4.3786   -5.1199    0.0000 C   0  0  0  0  0  0  0  0  0  0  0  0
   -5.4933   -4.1162    0.0000 O   0  0  0  0  0  0  0  0  0  0  0  0
   -4.6904   -6.5871    0.0000 N   0  0  0  0  0  0  0  0  0  0  0  0
   -6.1170   -7.0506    0.0000 C   0  0  0  0  0  0  0  0  0  0  0  0
   -6.4289   -8.5179    0.0000 C   0  0  0  0  0  0  0  0  0  0  0  0
   -7.8555   -8.9814    0.0000 C   0  0  0  0  0  0  0  0  0  0  0  0
   -8.1673  -10.4486    0.0000 C   0  0  0  0  0  0  0  0  0  0  0  0
   -7.0526  -11.4523    0.0000 C   0  0  0  0  0  0  0  0  0  0  0  0
   -7.3645  -12.9195    0.0000 C   0  0  0  0  0  0  0  0  0  0  0  0
   -6.2498  -13.9232    0.0000 O   0  0  0  0  0  0  0  0  0  0  0  0
   -8.7911  -13.3831    0.0000 N   0  0  0  0  0  0  0  0  0  0  0  0
   -9.1029  -14.8503    0.0000 C   0  0  0  0  0  0  0  0  0  0  0  0
  -10.5295  -15.3138    0.0000 C   0  0  0  0  0  0  0  0  0  0  0  0
  -10.8414  -16.7810    0.0000 C   0  0  0  0  0  0  0  0  0  0  0  0
  -12.2680  -17.2445    0.0000 C   0  0  0  0  0  0  0  0  0  0  0  0
  -12.7315  -18.6711    0.0000 C   0  0  0  0  0  0  0  0  0  0  0  0
  -14.2315  -18.6711    0.0000 C   0  0  0  0  0  0  0  0  0  0  0  0
  -14.6950  -17.2445    0.0000 C   0  0  0  0  0  0  0  0  0  0  0  0
  -13.4815  -16.3629    0.0000 S   0  0  0  0  0  0  0  0  0  0  0  0
   -9.7267  -17.7847    0.0000 C   0  0  0  0  0  0  0  0  0  0  0  0
   -8.3001  -17.3212    0.0000 C   0  0  0  0  0  0  0  0  0  0  0  0
   -7.9882  -15.8540    0.0000 C   0  0  0  0  0  0  0  0  0  0  0  0
   -6.5616  -15.3904    0.0000 N   0  0  0  0  0  0  0  0  0  0  0  0
   -5.6260  -10.9888    0.0000 C   0  0  0  0  0  0  0  0  0  0  0  0
   -5.3142   -9.5216    0.0000 C   0  0  0  0  0  0  0  0  0  0  0  0
    0.3922   -7.6675    0.0000 C   0  0  0  0  0  0  0  0  0  0  0  0
    1.5069   -8.6712    0.0000 C   0  0  0  0  0  0  0  0  0  0  0  0
  1  2  1  0
  2  3  1  0
  3  4  2  0
  4  5  1  0
  5  6  2  0
  6  7  1  0
  7  8  2  0
  7  9  1  0
  9 10  1  0
 10 11  1  0
 11 12  1  0
 12 13  2  0
 13 14  1  0
 14 15  1  0
 15 16  2  0
 16 17  1  0
 17 18  2  0
 18 19  1  0
 19 20  2  0
 10 21  1  0
 21 22  2  0
 21 23  1  0
 23 24  1  0
 24 25  1  0
 25 26  2  0
 26 27  1  0
 27 28  2  0
 28 29  1  0
 29 30  2  0
 29 31  1  0
 31 32  1  0
 32 33  2  0
 33 34  1  0
 34 35  1  0
 35 36  2  0
 36 37  1  0
 37 38  2  0
 38 39  1  0
 34 40  2  0
 40 41  1  0
 41 42  2  0
 42 43  1  0
 28 44  1  0
 44 45  2  0
  6 46  1  0
 46 47  2  0
 47  3  1  0
 20 12  1  0
 45 25  1  0
 20 15  1  0
 42 32  1  0
 39 35  1  0
M  END
>  <molecule_chembl_id>  (684) 
CHEMBL4067828

>  <canonical_smiles>  (684) 
COc1ccc(C(=O)NC(Cc2c[nH]c3ccccc23)C(=O)NCc2ccc(C(=O)Nc3cc(-c4cccs4)ccc3N)cc2)cc1

>  <pchembl_value_mean>  (684) 
6.5

>  <document_chembl_id>  (684) 
CHEMBL4020724

$$$$

     RDKit          2D

 31 34  0  0  0  0  0  0  0  0999 V2000
    3.0000    0.0000    0.0000 N   0  0  0  0  0  0  0  0  0  0  0  0
    1.5000    0.0000    0.0000 C   0  0  0  0  0  0  0  0  0  0  0  0
    0.7500   -1.2990    0.0000 C   0  0  0  0  0  0  0  0  0  0  0  0
   -0.7500   -1.2990    0.0000 C   0  0  0  0  0  0  0  0  0  0  0  0
   -1.5000    0.0000    0.0000 C   0  0  0  0  0  0  0  0  0  0  0  0
   -0.7500    1.2990    0.0000 C   0  0  0  0  0  0  0  0  0  0  0  0
    0.7500    1.2990    0.0000 C   0  0  0  0  0  0  0  0  0  0  0  0
    1.5000    2.5981    0.0000 N   0  0  0  0  0  0  0  0  0  0  0  0
    0.7500    3.8971    0.0000 C   0  0  0  0  0  0  0  0  0  0  0  0
   -0.7500    3.8971    0.0000 O   0  0  0  0  0  0  0  0  0  0  0  0
    1.5000    5.1962    0.0000 C   0  0  0  0  0  0  0  0  0  0  0  0
    3.0000    5.1962    0.0000 C   0  0  0  0  0  0  0  0  0  0  0  0
    3.7500    6.4952    0.0000 C   0  0  0  0  0  0  0  0  0  0  0  0
    3.0000    7.7942    0.0000 C   0  0  0  0  0  0  0  0  0  0  0  0
    3.7500    9.0933    0.0000 C   0  0  0  0  0  0  0  0  0  0  0  0
    5.2500    9.0933    0.0000 N   0  0  0  0  0  0  0  0  0  0  0  0
    6.0000   10.3923    0.0000 C   0  0  0  0  0  0  0  0  0  0  0  0
    7.5000   10.3923    0.0000 C   0  0  0  0  0  0  0  0  0  0  0  0
    8.3817   11.6058    0.0000 N   0  0  0  0  0  0  0  0  0  0  0  0
    9.8083   11.1423    0.0000 C   0  0  0  0  0  0  0  0  0  0  0  0
   11.0218   12.0240    0.0000 C   0  0  0  0  0  0  0  0  0  0  0  0
   12.3921   11.4139    0.0000 C   0  0  0  0  0  0  0  0  0  0  0  0
   13.6056   12.2956    0.0000 C   0  0  0  0  0  0  0  0  0  0  0  0
   13.4488   13.7873    0.0000 C   0  0  0  0  0  0  0  0  0  0  0  0
   12.0785   14.3974    0.0000 C   0  0  0  0  0  0  0  0  0  0  0  0
   10.8650   13.5158    0.0000 C   0  0  0  0  0  0  0  0  0  0  0  0
    9.4947   14.1259    0.0000 Cl  0  0  0  0  0  0  0  0  0  0  0  0
    9.8083    9.6423    0.0000 N   0  0  0  0  0  0  0  0  0  0  0  0
    8.3817    9.1788    0.0000 O   0  0  0  0  0  0  0  0  0  0  0  0
    1.5000    7.7942    0.0000 C   0  0  0  0  0  0  0  0  0  0  0  0
    0.7500    6.4952    0.0000 C   0  0  0  0  0  0  0  0  0  0  0  0
  1  2  1  0
  2  3  2  0
  3  4  1  0
  4  5  2  0
  5  6  1  0
  6  7  2  0
  7  8  1  0
  8  9  1  0
  9 10  2  0
  9 11  1  0
 11 12  2  0
 12 13  1  0
 13 14  2  0
 14 15  1  0
 15 16  1  0
 16 17  1  0
 17 18  1  0
 18 19  2  0
 19 20  1  0
 20 21  1  0
 21 22  2  0
 22 23  1  0
 23 24  2  0
 24 25  1  0
 25 26  2  0
 26 27  1  0
 20 28  2  0
 28 29  1  0
 14 30  1  0
 30 31  2  0
  7  2  1  0
 31 11  1  0
 29 18  1  0
 26 21  1  0
M  END
>  <molecule_chembl_id>  (685) 
CHEMBL3421746

>  <canonical_smiles>  (685) 
Nc1ccccc1NC(=O)c1ccc(CNCc2nc(-c3ccccc3Cl)no2)cc1

>  <pchembl_value_mean>  (685) 
6.5

>  <document_chembl_id>  (685) 
CHEMBL3421568

$$$$

     RDKit          2D

 46 51  0  0  0  0  0  0  0  0999 V2000
    1.9979  -12.6093    0.0000 C   0  0  0  0  0  0  0  0  0  0  0  0
    2.3097  -11.1421    0.0000 O   0  0  0  0  0  0  0  0  0  0  0  0
    1.1950  -10.1384    0.0000 C   0  0  0  0  0  0  0  0  0  0  0  0
   -0.2316  -10.6019    0.0000 C   0  0  0  0  0  0  0  0  0  0  0  0
   -1.3463   -9.5982    0.0000 C   0  0  0  0  0  0  0  0  0  0  0  0
   -1.0344   -8.1310    0.0000 C   0  0  0  0  0  0  0  0  0  0  0  0
   -2.1491   -7.1273    0.0000 C   0  0  0  0  0  0  0  0  0  0  0  0
   -3.5757   -7.5908    0.0000 O   0  0  0  0  0  0  0  0  0  0  0  0
   -1.8373   -5.6601    0.0000 N   0  0  0  0  0  0  0  0  0  0  0  0
   -2.9520   -4.6564    0.0000 C   0  0  0  0  0  0  0  0  0  0  0  0
   -2.6401   -3.1891    0.0000 C   0  0  0  0  0  0  0  0  0  0  0  0
   -1.2135   -2.7256    0.0000 C   0  0  0  0  0  0  0  0  0  0  0  0
   -0.0000   -3.6073    0.0000 C   0  0  0  0  0  0  0  0  0  0  0  0
    1.2135   -2.7256    0.0000 N   0  0  0  0  0  0  0  0  0  0  0  0
    0.7500   -1.2990    0.0000 C   0  0  0  0  0  0  0  0  0  0  0  0
    1.5000    0.0000    0.0000 C   0  0  0  0  0  0  0  0  0  0  0  0
    0.7500    1.2990    0.0000 C   0  0  0  0  0  0  0  0  0  0  0  0
   -0.7500    1.2990    0.0000 C   0  0  0  0  0  0  0  0  0  0  0  0
   -1.5000    0.0000    0.0000 C   0  0  0  0  0  0  0  0  0  0  0  0
   -0.7500   -1.2990    0.0000 C   0  0  0  0  0  0  0  0  0  0  0  0
   -4.3786   -5.1199    0.0000 C   0  0  0  0  0  0  0  0  0  0  0  0
   -5.4933   -4.1162    0.0000 O   0  0  0  0  0  0  0  0  0  0  0  0
   -4.6904   -6.5871    0.0000 N   0  0  0  0  0  0  0  0  0  0  0  0
   -6.1170   -7.0506    0.0000 C   0  0  0  0  0  0  0  0  0  0  0  0
   -7.2317   -6.0469    0.0000 C   0  0  0  0  0  0  0  0  0  0  0  0
   -8.6583   -6.5105    0.0000 C   0  0  0  0  0  0  0  0  0  0  0  0
   -8.9702   -7.9777    0.0000 C   0  0  0  0  0  0  0  0  0  0  0  0
  -10.3968   -8.4412    0.0000 C   0  0  0  0  0  0  0  0  0  0  0  0
  -10.7086   -9.9084    0.0000 O   0  0  0  0  0  0  0  0  0  0  0  0
  -11.5115   -7.4375    0.0000 N   0  0  0  0  0  0  0  0  0  0  0  0
  -12.9381   -7.9010    0.0000 C   0  0  0  0  0  0  0  0  0  0  0  0
  -14.0528   -6.8974    0.0000 C   0  0  0  0  0  0  0  0  0  0  0  0
  -15.4794   -7.3609    0.0000 C   0  0  0  0  0  0  0  0  0  0  0  0
  -16.5941   -6.3572    0.0000 C   0  0  0  0  0  0  0  0  0  0  0  0
  -18.0613   -6.6690    0.0000 C   0  0  0  0  0  0  0  0  0  0  0  0
  -18.8113   -5.3700    0.0000 C   0  0  0  0  0  0  0  0  0  0  0  0
  -17.8076   -4.2553    0.0000 C   0  0  0  0  0  0  0  0  0  0  0  0
  -16.4373   -4.8654    0.0000 S   0  0  0  0  0  0  0  0  0  0  0  0
  -15.7912   -8.8281    0.0000 C   0  0  0  0  0  0  0  0  0  0  0  0
  -14.6765   -9.8318    0.0000 C   0  0  0  0  0  0  0  0  0  0  0  0
  -13.2499   -9.3683    0.0000 C   0  0  0  0  0  0  0  0  0  0  0  0
  -12.1352  -10.3720    0.0000 N   0  0  0  0  0  0  0  0  0  0  0  0
   -7.8555   -8.9814    0.0000 C   0  0  0  0  0  0  0  0  0  0  0  0
   -6.4289   -8.5179    0.0000 C   0  0  0  0  0  0  0  0  0  0  0  0
    0.3922   -7.6675    0.0000 C   0  0  0  0  0  0  0  0  0  0  0  0
    1.5069   -8.6712    0.0000 C   0  0  0  0  0  0  0  0  0  0  0  0
  1  2  1  0
  2  3  1  0
  3  4  2  0
  4  5  1  0
  5  6  2  0
  6  7  1  0
  7  8  2  0
  7  9  1  0
  9 10  1  0
 10 11  1  0
 11 12  1  0
 12 13  2  0
 13 14  1  0
 14 15  1  0
 15 16  2  0
 16 17  1  0
 17 18  2  0
 18 19  1  0
 19 20  2  0
 10 21  1  0
 21 22  2  0
 21 23  1  0
 23 24  1  0
 24 25  2  0
 25 26  1  0
 26 27  2  0
 27 28  1  0
 28 29  2  0
 28 30  1  0
 30 31  1  0
 31 32  2  0
 32 33  1  0
 33 34  1  0
 34 35  2  0
 35 36  1  0
 36 37  2  0
 37 38  1  0
 33 39  2  0
 39 40  1  0
 40 41  2  0
 41 42  1  0
 27 43  1  0
 43 44  2  0
  6 45  1  0
 45 46  2  0
 46  3  1  0
 20 12  1  0
 44 24  1  0
 20 15  1  0
 41 31  1  0
 38 34  1  0
M  END
>  <molecule_chembl_id>  (686) 
CHEMBL4078716

>  <canonical_smiles>  (686) 
COc1ccc(C(=O)NC(Cc2c[nH]c3ccccc23)C(=O)Nc2ccc(C(=O)Nc3cc(-c4cccs4)ccc3N)cc2)cc1

>  <pchembl_value_mean>  (686) 
6.5

>  <document_chembl_id>  (686) 
CHEMBL4020724

$$$$

     RDKit          2D

 19 21  0  0  0  0  0  0  0  0999 V2000
    3.7500    1.2990    0.0000 O   0  0  0  0  0  0  0  0  0  0  0  0
    3.0000    0.0000    0.0000 C   0  0  0  0  0  0  0  0  0  0  0  0
    3.7500   -1.2990    0.0000 N   0  0  0  0  0  0  0  0  0  0  0  0
    5.2500   -1.2990    0.0000 O   0  0  0  0  0  0  0  0  0  0  0  0
    1.5000    0.0000    0.0000 C   0  0  0  0  0  0  0  0  0  0  0  0
    0.7500   -1.2990    0.0000 C   0  0  0  0  0  0  0  0  0  0  0  0
   -0.7500   -1.2990    0.0000 N   0  0  0  0  0  0  0  0  0  0  0  0
   -1.5000    0.0000    0.0000 C   0  0  0  0  0  0  0  0  0  0  0  0
   -3.0000    0.0000    0.0000 N   0  0  0  0  0  0  0  0  0  0  0  0
   -3.7500    1.2990    0.0000 C   0  0  0  0  0  0  0  0  0  0  0  0
   -5.1595    0.7860    0.0000 C   0  0  0  0  0  0  0  0  0  0  0  0
   -6.4031    1.6248    0.0000 C   0  0  0  0  0  0  0  0  0  0  0  0
   -7.5851    0.7013    0.0000 C   0  0  0  0  0  0  0  0  0  0  0  0
   -7.0721   -0.7082    0.0000 C   0  0  0  0  0  0  0  0  0  0  0  0
   -5.5730   -0.6559    0.0000 O   0  0  0  0  0  0  0  0  0  0  0  0
   -4.0105    2.7762    0.0000 C   0  0  0  0  0  0  0  0  0  0  0  0
   -2.6009    2.2632    0.0000 C   0  0  0  0  0  0  0  0  0  0  0  0
   -0.7500    1.2990    0.0000 N   0  0  0  0  0  0  0  0  0  0  0  0
    0.7500    1.2990    0.0000 C   0  0  0  0  0  0  0  0  0  0  0  0
  1  2  2  0
  2  3  1  0
  3  4  1  0
  2  5  1  0
  5  6  2  0
  6  7  1  0
  7  8  2  0
  8  9  1  0
  9 10  1  0
 10 11  1  0
 11 12  2  0
 12 13  1  0
 13 14  2  0
 14 15  1  0
 10 16  1  0
 16 17  1  0
  8 18  1  0
 18 19  2  0
 19  5  1  0
 17 10  1  0
 15 11  1  0
M  END
>  <molecule_chembl_id>  (687) 
CHEMBL3655976

>  <canonical_smiles>  (687) 
O=C(NO)c1cnc(NC2(c3ccco3)CC2)nc1

>  <pchembl_value_mean>  (687) 
6.5

>  <document_chembl_id>  (687) 
CHEMBL3639071

$$$$

     RDKit          2D

 30 33  0  0  0  0  0  0  0  0999 V2000
    4.5000  -10.3923    0.0000 O   0  0  0  0  0  0  0  0  0  0  0  0
    3.0000  -10.3923    0.0000 C   0  0  0  0  0  0  0  0  0  0  0  0
    2.2500   -9.0933    0.0000 C   0  0  0  0  0  0  0  0  0  0  0  0
    3.0000   -7.7942    0.0000 C   0  0  0  0  0  0  0  0  0  0  0  0
    2.2500   -6.4952    0.0000 C   0  0  0  0  0  0  0  0  0  0  0  0
    0.7500   -6.4952    0.0000 C   0  0  0  0  0  0  0  0  0  0  0  0
   -0.0000   -5.1962    0.0000 C   0  0  0  0  0  0  0  0  0  0  0  0
    0.7500   -3.8971    0.0000 C   0  0  0  0  0  0  0  0  0  0  0  0
    2.2500   -3.8971    0.0000 C   0  0  0  0  0  0  0  0  0  0  0  0
    3.0000   -5.1962    0.0000 C   0  0  0  0  0  0  0  0  0  0  0  0
    3.0000   -2.5981    0.0000 C   0  0  0  0  0  0  0  0  0  0  0  0
    4.5000   -2.5981    0.0000 O   0  0  0  0  0  0  0  0  0  0  0  0
    2.2500   -1.2990    0.0000 C   0  0  0  0  0  0  0  0  0  0  0  0
    0.7500   -1.2990    0.0000 C   0  0  0  0  0  0  0  0  0  0  0  0
    1.5000    0.0000    0.0000 C   0  0  0  0  0  0  0  0  0  0  0  0
    0.7500    1.2990    0.0000 C   0  0  0  0  0  0  0  0  0  0  0  0
   -0.7500    1.2990    0.0000 N   0  0  0  0  0  0  0  0  0  0  0  0
   -1.5000    2.5981    0.0000 C   0  0  0  0  0  0  0  0  0  0  0  0
   -0.7500    3.8971    0.0000 C   0  0  0  0  0  0  0  0  0  0  0  0
    0.7500    3.8971    0.0000 C   0  0  0  0  0  0  0  0  0  0  0  0
    1.5000    5.1962    0.0000 C   0  0  0  0  0  0  0  0  0  0  0  0
    0.7500    6.4952    0.0000 C   0  0  0  0  0  0  0  0  0  0  0  0
    1.5000    7.7942    0.0000 F   0  0  0  0  0  0  0  0  0  0  0  0
   -0.7500    6.4952    0.0000 C   0  0  0  0  0  0  0  0  0  0  0  0
   -1.5000    5.1962    0.0000 C   0  0  0  0  0  0  0  0  0  0  0  0
   -1.5000    0.0000    0.0000 C   0  0  0  0  0  0  0  0  0  0  0  0
   -0.7500   -1.2990    0.0000 C   0  0  0  0  0  0  0  0  0  0  0  0
   -0.0000   -2.5981    0.0000 O   0  0  0  0  0  0  0  0  0  0  0  0
    2.2500  -11.6913    0.0000 N   0  0  0  0  0  0  0  0  0  0  0  0
    3.0000  -12.9904    0.0000 O   0  0  0  0  0  0  0  0  0  0  0  0
  1  2  2  0
  2  3  1  0
  3  4  2  3
  4  5  1  0
  5  6  2  0
  6  7  1  0
  7  8  2  0
  8  9  1  0
  9 10  2  0
  9 11  1  0
 11 12  2  0
 11 13  1  0
 13 14  1  0
 14 15  1  0
 15 16  1  0
 16 17  1  0
 17 18  1  0
 18 19  1  0
 19 20  2  0
 20 21  1  0
 21 22  2  0
 22 23  1  0
 22 24  1  0
 24 25  2  0
 17 26  1  0
 26 27  1  0
 14 28  1  0
  2 29  1  0
 29 30  1  0
 10  5  1  0
 27 14  1  0
 28  8  1  0
 25 19  1  0
M  END
>  <molecule_chembl_id>  (688) 
CHEMBL2390995

>  <canonical_smiles>  (688) 
O=C(C=Cc1ccc2c(c1)C(=O)CC1(CCN(Cc3ccc(F)cc3)CC1)O2)NO

>  <pchembl_value_mean>  (688) 
6.505

>  <document_chembl_id>  (688) 
CHEMBL2390828

$$$$

     RDKit          2D

 48 53  0  0  0  0  0  0  0  0999 V2000
    1.9979  -12.6093    0.0000 C   0  0  0  0  0  0  0  0  0  0  0  0
    2.3097  -11.1421    0.0000 O   0  0  0  0  0  0  0  0  0  0  0  0
    1.1950  -10.1384    0.0000 C   0  0  0  0  0  0  0  0  0  0  0  0
   -0.2316  -10.6019    0.0000 C   0  0  0  0  0  0  0  0  0  0  0  0
   -1.3463   -9.5982    0.0000 C   0  0  0  0  0  0  0  0  0  0  0  0
   -1.0344   -8.1310    0.0000 C   0  0  0  0  0  0  0  0  0  0  0  0
   -2.1491   -7.1273    0.0000 C   0  0  0  0  0  0  0  0  0  0  0  0
   -3.5757   -7.5908    0.0000 O   0  0  0  0  0  0  0  0  0  0  0  0
   -1.8373   -5.6601    0.0000 N   0  0  0  0  0  0  0  0  0  0  0  0
   -2.9520   -4.6564    0.0000 C   0  0  0  0  0  0  0  0  0  0  0  0
   -2.6401   -3.1891    0.0000 C   0  0  0  0  0  0  0  0  0  0  0  0
   -1.2135   -2.7256    0.0000 C   0  0  0  0  0  0  0  0  0  0  0  0
   -0.0000   -3.6073    0.0000 C   0  0  0  0  0  0  0  0  0  0  0  0
    1.2135   -2.7256    0.0000 N   0  0  0  0  0  0  0  0  0  0  0  0
    0.7500   -1.2990    0.0000 C   0  0  0  0  0  0  0  0  0  0  0  0
    1.5000    0.0000    0.0000 C   0  0  0  0  0  0  0  0  0  0  0  0
    0.7500    1.2990    0.0000 C   0  0  0  0  0  0  0  0  0  0  0  0
   -0.7500    1.2990    0.0000 C   0  0  0  0  0  0  0  0  0  0  0  0
   -1.5000    0.0000    0.0000 C   0  0  0  0  0  0  0  0  0  0  0  0
   -0.7500   -1.2990    0.0000 C   0  0  0  0  0  0  0  0  0  0  0  0
   -4.3786   -5.1199    0.0000 C   0  0  0  0  0  0  0  0  0  0  0  0
   -5.4933   -4.1162    0.0000 O   0  0  0  0  0  0  0  0  0  0  0  0
   -4.6904   -6.5871    0.0000 N   0  0  0  0  0  0  0  0  0  0  0  0
   -6.1170   -7.0506    0.0000 C   0  0  0  0  0  0  0  0  0  0  0  0
   -6.4289   -8.5179    0.0000 C   0  0  0  0  0  0  0  0  0  0  0  0
   -7.8555   -8.9814    0.0000 C   0  0  0  0  0  0  0  0  0  0  0  0
   -8.1673  -10.4486    0.0000 C   0  0  0  0  0  0  0  0  0  0  0  0
   -7.0526  -11.4523    0.0000 C   0  0  0  0  0  0  0  0  0  0  0  0
   -7.3645  -12.9195    0.0000 C   0  0  0  0  0  0  0  0  0  0  0  0
   -6.2498  -13.9232    0.0000 O   0  0  0  0  0  0  0  0  0  0  0  0
   -8.7911  -13.3831    0.0000 N   0  0  0  0  0  0  0  0  0  0  0  0
   -9.1029  -14.8503    0.0000 C   0  0  0  0  0  0  0  0  0  0  0  0
  -10.5295  -15.3138    0.0000 C   0  0  0  0  0  0  0  0  0  0  0  0
  -10.8414  -16.7810    0.0000 C   0  0  0  0  0  0  0  0  0  0  0  0
  -12.2680  -17.2445    0.0000 C   0  0  0  0  0  0  0  0  0  0  0  0
  -13.3827  -16.2409    0.0000 C   0  0  0  0  0  0  0  0  0  0  0  0
  -14.8093  -16.7044    0.0000 C   0  0  0  0  0  0  0  0  0  0  0  0
  -15.1211  -18.1716    0.0000 C   0  0  0  0  0  0  0  0  0  0  0  0
  -14.0064  -19.1753    0.0000 C   0  0  0  0  0  0  0  0  0  0  0  0
  -12.5798  -18.7118    0.0000 C   0  0  0  0  0  0  0  0  0  0  0  0
   -9.7267  -17.7847    0.0000 C   0  0  0  0  0  0  0  0  0  0  0  0
   -8.3001  -17.3212    0.0000 C   0  0  0  0  0  0  0  0  0  0  0  0
   -7.9882  -15.8540    0.0000 C   0  0  0  0  0  0  0  0  0  0  0  0
   -6.5616  -15.3904    0.0000 N   0  0  0  0  0  0  0  0  0  0  0  0
   -5.6260  -10.9888    0.0000 C   0  0  0  0  0  0  0  0  0  0  0  0
   -5.3142   -9.5216    0.0000 C   0  0  0  0  0  0  0  0  0  0  0  0
    0.3922   -7.6675    0.0000 C   0  0  0  0  0  0  0  0  0  0  0  0
    1.5069   -8.6712    0.0000 C   0  0  0  0  0  0  0  0  0  0  0  0
  1  2  1  0
  2  3  1  0
  3  4  2  0
  4  5  1  0
  5  6  2  0
  6  7  1  0
  7  8  2  0
  7  9  1  0
  9 10  1  0
 10 11  1  0
 11 12  1  0
 12 13  2  0
 13 14  1  0
 14 15  1  0
 15 16  2  0
 16 17  1  0
 17 18  2  0
 18 19  1  0
 19 20  2  0
 10 21  1  0
 21 22  2  0
 21 23  1  0
 23 24  1  0
 24 25  1  0
 25 26  2  0
 26 27  1  0
 27 28  2  0
 28 29  1  0
 29 30  2  0
 29 31  1  0
 31 32  1  0
 32 33  2  0
 33 34  1  0
 34 35  1  0
 35 36  2  0
 36 37  1  0
 37 38  2  0
 38 39  1  0
 39 40  2  0
 34 41  2  0
 41 42  1  0
 42 43  2  0
 43 44  1  0
 28 45  1  0
 45 46  2  0
  6 47  1  0
 47 48  2  0
 48  3  1  0
 20 12  1  0
 46 25  1  0
 20 15  1  0
 43 32  1  0
 40 35  1  0
M  END
>  <molecule_chembl_id>  (689) 
CHEMBL4087539

>  <canonical_smiles>  (689) 
COc1ccc(C(=O)NC(Cc2c[nH]c3ccccc23)C(=O)NCc2ccc(C(=O)Nc3cc(-c4ccccc4)ccc3N)cc2)cc1

>  <pchembl_value_mean>  (689) 
6.51

>  <document_chembl_id>  (689) 
CHEMBL4020724

$$$$

     RDKit          2D

 19 20  0  0  0  0  0  0  0  0999 V2000
    6.0000    0.0000    0.0000 O   0  0  0  0  0  0  0  0  0  0  0  0
    5.2500   -1.2990    0.0000 C   0  0  0  0  0  0  0  0  0  0  0  0
    3.7500   -1.2990    0.0000 C   0  0  0  0  0  0  0  0  0  0  0  0
    3.0000    0.0000    0.0000 C   0  0  0  0  0  0  0  0  0  0  0  0
    1.5000    0.0000    0.0000 C   0  0  0  0  0  0  0  0  0  0  0  0
    0.7500   -1.2990    0.0000 C   0  0  0  0  0  0  0  0  0  0  0  0
   -0.7500   -1.2990    0.0000 C   0  0  0  0  0  0  0  0  0  0  0  0
   -1.5000    0.0000    0.0000 C   0  0  0  0  0  0  0  0  0  0  0  0
   -3.0000    0.0000    0.0000 C   0  0  0  0  0  0  0  0  0  0  0  0
   -3.7500    1.2990    0.0000 C   0  0  0  0  0  0  0  0  0  0  0  0
   -5.2500    1.2990    0.0000 C   0  0  0  0  0  0  0  0  0  0  0  0
   -6.0000    0.0000    0.0000 C   0  0  0  0  0  0  0  0  0  0  0  0
   -7.5000    0.0000    0.0000 O   0  0  0  0  0  0  0  0  0  0  0  0
   -5.2500   -1.2990    0.0000 C   0  0  0  0  0  0  0  0  0  0  0  0
   -3.7500   -1.2990    0.0000 C   0  0  0  0  0  0  0  0  0  0  0  0
   -0.7500    1.2990    0.0000 C   0  0  0  0  0  0  0  0  0  0  0  0
    0.7500    1.2990    0.0000 C   0  0  0  0  0  0  0  0  0  0  0  0
    6.0000   -2.5981    0.0000 N   0  0  0  0  0  0  0  0  0  0  0  0
    7.5000   -2.5981    0.0000 O   0  0  0  0  0  0  0  0  0  0  0  0
  1  2  2  0
  2  3  1  0
  3  4  2  3
  4  5  1  0
  5  6  1  0
  6  7  1  0
  7  8  1  0
  8  9  1  0
  9 10  2  0
 10 11  1  0
 11 12  2  0
 12 13  1  0
 12 14  1  0
 14 15  2  0
  8 16  1  0
 16 17  1  0
  2 18  1  0
 18 19  1  0
 17  5  1  0
 15  9  1  0
M  END
>  <molecule_chembl_id>  (690) 
CHEMBL539156

>  <canonical_smiles>  (690) 
O=C(C=CC1CCC(c2ccc(O)cc2)CC1)NO

>  <pchembl_value_mean>  (690) 
6.51

>  <document_chembl_id>  (690) 
CHEMBL1158371

$$$$

     RDKit          2D

 38 41  0  0  0  0  0  0  0  0999 V2000
    3.7500   -1.2990    0.0000 C   0  0  0  0  0  0  0  0  0  0  0  0
    3.0000    0.0000    0.0000 O   0  0  0  0  0  0  0  0  0  0  0  0
    1.5000    0.0000    0.0000 C   0  0  0  0  0  0  0  0  0  0  0  0
    0.7500   -1.2990    0.0000 C   0  0  0  0  0  0  0  0  0  0  0  0
   -0.7500   -1.2990    0.0000 C   0  0  0  0  0  0  0  0  0  0  0  0
   -1.5000    0.0000    0.0000 C   0  0  0  0  0  0  0  0  0  0  0  0
   -0.7500    1.2990    0.0000 C   0  0  0  0  0  0  0  0  0  0  0  0
    0.7500    1.2990    0.0000 C   0  0  0  0  0  0  0  0  0  0  0  0
   -1.7537    2.4138    0.0000 C   0  0  0  0  0  0  0  0  0  0  0  0
   -1.4418    3.8810    0.0000 C   0  0  0  0  0  0  0  0  0  0  0  0
   -2.5565    4.8847    0.0000 C   0  0  0  0  0  0  0  0  0  0  0  0
   -3.9831    4.4211    0.0000 O   0  0  0  0  0  0  0  0  0  0  0  0
   -2.2447    6.3519    0.0000 O   0  0  0  0  0  0  0  0  0  0  0  0
   -3.1240    1.8037    0.0000 C   0  0  0  0  0  0  0  0  0  0  0  0
   -4.4231    2.5537    0.0000 C   0  0  0  0  0  0  0  0  0  0  0  0
   -2.9672    0.3119    0.0000 N   0  0  0  0  0  0  0  0  0  0  0  0
   -4.0819   -0.6918    0.0000 C   0  0  0  0  0  0  0  0  0  0  0  0
   -5.5085   -0.2283    0.0000 C   0  0  0  0  0  0  0  0  0  0  0  0
   -5.8204    1.2389    0.0000 C   0  0  0  0  0  0  0  0  0  0  0  0
   -7.2470    1.7024    0.0000 C   0  0  0  0  0  0  0  0  0  0  0  0
   -8.3617    0.6987    0.0000 C   0  0  0  0  0  0  0  0  0  0  0  0
   -9.7883    1.1623    0.0000 C   0  0  0  0  0  0  0  0  0  0  0  0
  -11.0018    0.2806    0.0000 C   0  0  0  0  0  0  0  0  0  0  0  0
  -12.2153    1.1623    0.0000 N   0  0  0  0  0  0  0  0  0  0  0  0
  -13.6419    0.6987    0.0000 C   0  0  0  0  0  0  0  0  0  0  0  0
  -14.7566    1.7024    0.0000 C   0  0  0  0  0  0  0  0  0  0  0  0
  -16.1832    1.2389    0.0000 C   0  0  0  0  0  0  0  0  0  0  0  0
  -17.2979    2.2426    0.0000 C   0  0  0  0  0  0  0  0  0  0  0  0
  -18.7245    1.7791    0.0000 C   0  0  0  0  0  0  0  0  0  0  0  0
  -19.8392    2.7828    0.0000 C   0  0  0  0  0  0  0  0  0  0  0  0
  -21.2658    2.3193    0.0000 C   0  0  0  0  0  0  0  0  0  0  0  0
  -21.5777    0.8520    0.0000 O   0  0  0  0  0  0  0  0  0  0  0  0
  -22.3805    3.3230    0.0000 N   0  0  0  0  0  0  0  0  0  0  0  0
  -23.8071    2.8594    0.0000 O   0  0  0  0  0  0  0  0  0  0  0  0
  -11.7518    2.5889    0.0000 N   0  0  0  0  0  0  0  0  0  0  0  0
  -10.2518    2.5889    0.0000 N   0  0  0  0  0  0  0  0  0  0  0  0
   -8.0498   -0.7685    0.0000 C   0  0  0  0  0  0  0  0  0  0  0  0
   -6.6232   -1.2320    0.0000 C   0  0  0  0  0  0  0  0  0  0  0  0
  1  2  1  0
  2  3  1  0
  3  4  2  0
  4  5  1  0
  5  6  2  0
  6  7  1  0
  7  8  2  0
  7  9  1  0
  9 10  1  0
 10 11  1  0
 11 12  2  0
 11 13  1  0
  9 14  2  0
 14 15  1  0
 14 16  1  0
 16 17  1  0
 17 18  1  0
 18 19  2  0
 19 20  1  0
 20 21  2  0
 21 22  1  0
 22 23  2  0
 23 24  1  0
 24 25  1  0
 25 26  1  0
 26 27  1  0
 27 28  1  0
 28 29  1  0
 29 30  1  0
 30 31  1  0
 31 32  2  0
 31 33  1  0
 33 34  1  0
 24 35  1  0
 35 36  2  0
 21 37  1  0
 37 38  2  0
  8  3  1  0
 38 18  1  0
 16  6  1  0
 36 22  1  0
M  END
>  <molecule_chembl_id>  (691) 
CHEMBL3884506

>  <canonical_smiles>  (691) 
COc1ccc2c(c1)c(CC(=O)O)c(C)n2Cc1ccc(-c2cn(CCCCCCC(=O)NO)nn2)cc1

>  <pchembl_value_mean>  (691) 
6.52

>  <document_chembl_id>  (691) 
CHEMBL3875218

$$$$

     RDKit          2D

 34 38  0  0  0  0  0  0  0  0999 V2000
   -1.5000  -10.3923    0.0000 C   0  0  0  0  0  0  0  0  0  0  0  0
   -0.7500   -9.0933    0.0000 O   0  0  0  0  0  0  0  0  0  0  0  0
   -1.5000   -7.7942    0.0000 C   0  0  0  0  0  0  0  0  0  0  0  0
   -0.7500   -6.4952    0.0000 C   0  0  0  0  0  0  0  0  0  0  0  0
   -1.5000   -5.1962    0.0000 N   0  0  0  0  0  0  0  0  0  0  0  0
   -0.7500   -3.8971    0.0000 C   0  0  0  0  0  0  0  0  0  0  0  0
    0.7500   -3.8971    0.0000 C   0  0  0  0  0  0  0  0  0  0  0  0
    1.5000   -2.5981    0.0000 C   0  0  0  0  0  0  0  0  0  0  0  0
    0.7500   -1.2990    0.0000 C   0  0  0  0  0  0  0  0  0  0  0  0
    1.5000    0.0000    0.0000 C   0  0  0  0  0  0  0  0  0  0  0  0
    0.7500    1.2990    0.0000 C   0  0  0  0  0  0  0  0  0  0  0  0
    1.5000    2.5981    0.0000 C   0  0  0  0  0  0  0  0  0  0  0  0
    0.7500    3.8971    0.0000 O   0  0  0  0  0  0  0  0  0  0  0  0
    3.0000    2.5981    0.0000 N   0  0  0  0  0  0  0  0  0  0  0  0
    3.7500    3.8971    0.0000 C   0  0  0  0  0  0  0  0  0  0  0  0
    5.2500    3.8971    0.0000 C   0  0  0  0  0  0  0  0  0  0  0  0
    6.0000    5.1962    0.0000 C   0  0  0  0  0  0  0  0  0  0  0  0
    7.5000    5.1962    0.0000 C   0  0  0  0  0  0  0  0  0  0  0  0
    8.2500    3.8971    0.0000 C   0  0  0  0  0  0  0  0  0  0  0  0
    9.7500    3.8971    0.0000 C   0  0  0  0  0  0  0  0  0  0  0  0
   10.5000    5.1962    0.0000 C   0  0  0  0  0  0  0  0  0  0  0  0
    9.7500    6.4952    0.0000 C   0  0  0  0  0  0  0  0  0  0  0  0
    8.2500    6.4952    0.0000 C   0  0  0  0  0  0  0  0  0  0  0  0
    5.2500    6.4952    0.0000 C   0  0  0  0  0  0  0  0  0  0  0  0
    3.7500    6.4952    0.0000 C   0  0  0  0  0  0  0  0  0  0  0  0
    3.0000    5.1962    0.0000 C   0  0  0  0  0  0  0  0  0  0  0  0
    1.5000    5.1962    0.0000 N   0  0  0  0  0  0  0  0  0  0  0  0
   -0.7500    1.2990    0.0000 C   0  0  0  0  0  0  0  0  0  0  0  0
   -1.5000    0.0000    0.0000 N   0  0  0  0  0  0  0  0  0  0  0  0
   -0.7500   -1.2990    0.0000 C   0  0  0  0  0  0  0  0  0  0  0  0
   -1.5000   -2.5981    0.0000 C   0  0  0  0  0  0  0  0  0  0  0  0
   -3.0000   -2.5981    0.0000 C   0  0  0  0  0  0  0  0  0  0  0  0
   -4.2990   -3.3481    0.0000 C   0  0  0  0  0  0  0  0  0  0  0  0
   -4.2990   -1.8481    0.0000 C   0  0  0  0  0  0  0  0  0  0  0  0
  1  2  1  0
  2  3  1  0
  3  4  1  0
  4  5  1  0
  5  6  1  0
  6  7  2  0
  7  8  1  0
  8  9  2  0
  9 10  1  0
 10 11  2  0
 11 12  1  0
 12 13  2  0
 12 14  1  0
 14 15  1  0
 15 16  2  0
 16 17  1  0
 17 18  1  0
 18 19  2  0
 19 20  1  0
 20 21  2  0
 21 22  1  0
 22 23  2  0
 17 24  2  0
 24 25  1  0
 25 26  2  0
 26 27  1  0
 11 28  1  0
 28 29  2  0
 29 30  1  0
 30 31  2  0
 31 32  1  0
 32 33  1  0
 33 34  1  0
 31  6  1  0
 34 32  1  0
 30  9  1  0
 26 15  1  0
 23 18  1  0
M  END
>  <molecule_chembl_id>  (692) 
CHEMBL3944342

>  <canonical_smiles>  (692) 
COCCNc1ccc2cc(C(=O)Nc3cc(-c4ccccc4)ccc3N)cnc2c1C1CC1

>  <pchembl_value_mean>  (692) 
6.52

>  <document_chembl_id>  (692) 
CHEMBL3886267

$$$$

     RDKit          2D

 34 37  0  0  0  0  0  0  0  0999 V2000
   -0.5773   -4.2803    0.0000 C   0  0  0  0  0  0  0  0  0  0  0  0
    0.8899   -3.9684    0.0000 C   0  0  0  0  0  0  0  0  0  0  0  0
    2.0046   -4.9721    0.0000 N   0  0  0  0  0  0  0  0  0  0  0  0
    3.3037   -4.2221    0.0000 O   0  0  0  0  0  0  0  0  0  0  0  0
    2.9918   -2.7549    0.0000 C   0  0  0  0  0  0  0  0  0  0  0  0
    3.9955   -1.6402    0.0000 C   0  0  0  0  0  0  0  0  0  0  0  0
    1.5000   -2.5981    0.0000 C   0  0  0  0  0  0  0  0  0  0  0  0
    0.7500   -1.2990    0.0000 C   0  0  0  0  0  0  0  0  0  0  0  0
    1.5000    0.0000    0.0000 C   0  0  0  0  0  0  0  0  0  0  0  0
    0.7500    1.2990    0.0000 C   0  0  0  0  0  0  0  0  0  0  0  0
   -0.7500    1.2990    0.0000 C   0  0  0  0  0  0  0  0  0  0  0  0
   -1.5000    0.0000    0.0000 C   0  0  0  0  0  0  0  0  0  0  0  0
   -0.7500   -1.2990    0.0000 C   0  0  0  0  0  0  0  0  0  0  0  0
   -2.9672    0.3119    0.0000 C   0  0  0  0  0  0  0  0  0  0  0  0
   -4.0819   -0.6918    0.0000 C   0  0  0  0  0  0  0  0  0  0  0  0
   -5.5085   -0.2283    0.0000 C   0  0  0  0  0  0  0  0  0  0  0  0
   -5.8204    1.2389    0.0000 C   0  0  0  0  0  0  0  0  0  0  0  0
   -7.2470    1.7024    0.0000 C   0  0  0  0  0  0  0  0  0  0  0  0
   -8.3617    0.6987    0.0000 C   0  0  0  0  0  0  0  0  0  0  0  0
   -9.7883    1.1623    0.0000 F   0  0  0  0  0  0  0  0  0  0  0  0
   -8.0498   -0.7685    0.0000 C   0  0  0  0  0  0  0  0  0  0  0  0
   -6.6232   -1.2320    0.0000 C   0  0  0  0  0  0  0  0  0  0  0  0
   -3.1240    1.8037    0.0000 C   0  0  0  0  0  0  0  0  0  0  0  0
   -1.7537    2.4138    0.0000 N   0  0  0  0  0  0  0  0  0  0  0  0
   -1.4418    3.8810    0.0000 C   0  0  0  0  0  0  0  0  0  0  0  0
   -2.5565    4.8847    0.0000 C   0  0  0  0  0  0  0  0  0  0  0  0
   -2.2447    6.3519    0.0000 C   0  0  0  0  0  0  0  0  0  0  0  0
   -3.3594    7.3556    0.0000 C   0  0  0  0  0  0  0  0  0  0  0  0
   -3.0475    8.8228    0.0000 C   0  0  0  0  0  0  0  0  0  0  0  0
   -4.1622    9.8265    0.0000 C   0  0  0  0  0  0  0  0  0  0  0  0
   -3.8504   11.2937    0.0000 C   0  0  0  0  0  0  0  0  0  0  0  0
   -2.4238   11.7573    0.0000 O   0  0  0  0  0  0  0  0  0  0  0  0
   -4.9651   12.2974    0.0000 N   0  0  0  0  0  0  0  0  0  0  0  0
   -4.6532   13.7646    0.0000 O   0  0  0  0  0  0  0  0  0  0  0  0
  1  2  1  0
  2  3  2  0
  3  4  1  0
  4  5  1  0
  5  6  1  0
  5  7  2  0
  7  8  1  0
  8  9  2  0
  9 10  1  0
 10 11  2  0
 11 12  1  0
 12 13  2  0
 12 14  1  0
 14 15  1  0
 15 16  1  0
 16 17  2  0
 17 18  1  0
 18 19  2  0
 19 20  1  0
 19 21  1  0
 21 22  2  0
 14 23  2  0
 23 24  1  0
 24 25  1  0
 25 26  1  0
 26 27  1  0
 27 28  1  0
 28 29  1  0
 29 30  1  0
 30 31  1  0
 31 32  2  0
 31 33  1  0
 33 34  1  0
  7  2  1  0
 13  8  1  0
 22 16  1  0
 24 11  1  0
M  END
>  <molecule_chembl_id>  (693) 
CHEMBL4454646

>  <canonical_smiles>  (693) 
Cc1noc(C)c1-c1ccc2c(c1)c(Cc1ccc(F)cc1)cn2CCCCCCC(=O)NO

>  <pchembl_value_mean>  (693) 
6.52

>  <document_chembl_id>  (693) 
CHEMBL4765345

$$$$

     RDKit          2D

 48 50  0  0  0  0  0  0  0  0999 V2000
   12.1339   -5.1962    0.0000 C   0  0  0  0  0  0  0  0  0  0  0  0
   11.3839   -3.8971    0.0000 C   0  0  0  0  0  0  0  0  0  0  0  0
    9.8839   -3.8971    0.0000 C   0  0  0  0  0  0  0  0  0  0  0  0
    9.1339   -5.1962    0.0000 O   0  0  0  0  0  0  0  0  0  0  0  0
    9.1339   -2.5981    0.0000 C   0  0  0  0  0  0  0  0  0  0  0  0
    7.6339   -2.5981    0.0000 C   0  0  0  0  0  0  0  0  0  0  0  0
    6.8839   -1.2990    0.0000 C   0  0  0  0  0  0  0  0  0  0  0  0
    5.3839   -1.2990    0.0000 C   0  0  0  0  0  0  0  0  0  0  0  0
    4.6339    0.0000    0.0000 C   0  0  0  0  0  0  0  0  0  0  0  0
    3.1339    0.0000    0.0000 C   0  0  0  0  0  0  0  0  0  0  0  0
    2.7750    1.4564    0.0000 N   0  0  0  0  0  0  0  0  0  0  0  0
    1.7803    2.5792    0.0000 C   0  0  0  0  0  0  0  0  0  0  0  0
    2.6324    3.8137    0.0000 O   0  0  0  0  0  0  0  0  0  0  0  0
    0.3778    3.1111    0.0000 C   0  0  0  0  0  0  0  0  0  0  0  0
    0.5586    4.6001    0.0000 C   0  0  0  0  0  0  0  0  0  0  0  0
    1.9385    5.1881    0.0000 C   0  0  0  0  0  0  0  0  0  0  0  0
    2.1193    6.6772    0.0000 C   0  0  0  0  0  0  0  0  0  0  0  0
    3.4993    7.2651    0.0000 N   0  0  0  0  0  0  0  0  0  0  0  0
    3.6801    8.7542    0.0000 C   0  0  0  0  0  0  0  0  0  0  0  0
    2.4809    9.6553    0.0000 N   0  0  0  0  0  0  0  0  0  0  0  0
    5.0601    9.3421    0.0000 N   0  0  0  0  0  0  0  0  0  0  0  0
   -1.1113    2.9303    0.0000 N   0  0  0  0  0  0  0  0  0  0  0  0
   -2.3458    2.0782    0.0000 C   0  0  0  0  0  0  0  0  0  0  0  0
   -3.4686    3.0729    0.0000 O   0  0  0  0  0  0  0  0  0  0  0  0
   -3.0429    0.7500    0.0000 C   0  0  0  0  0  0  0  0  0  0  0  0
   -3.0429   -0.7500    0.0000 C   0  0  0  0  0  0  0  0  0  0  0  0
   -2.3458   -2.0782    0.0000 N   0  0  0  0  0  0  0  0  0  0  0  0
   -3.4686   -3.0729    0.0000 C   0  0  0  0  0  0  0  0  0  0  0  0
   -4.8914   -2.5979    0.0000 C   0  0  0  0  0  0  0  0  0  0  0  0
   -6.0141   -3.5926    0.0000 C   0  0  0  0  0  0  0  0  0  0  0  0
   -5.1914   -1.1282    0.0000 C   0  0  0  0  0  0  0  0  0  0  0  0
   -1.1113   -2.9303    0.0000 C   0  0  0  0  0  0  0  0  0  0  0  0
   -1.6432   -4.3328    0.0000 O   0  0  0  0  0  0  0  0  0  0  0  0
    0.3778   -3.1111    0.0000 C   0  0  0  0  0  0  0  0  0  0  0  0
    1.7803   -2.5792    0.0000 N   0  0  0  0  0  0  0  0  0  0  0  0
    2.6324   -3.8137    0.0000 C   0  0  0  0  0  0  0  0  0  0  0  0
    1.9893   -5.1688    0.0000 C   0  0  0  0  0  0  0  0  0  0  0  0
    2.8414   -6.4033    0.0000 C   0  0  0  0  0  0  0  0  0  0  0  0
    4.3410   -6.4396    0.0000 C   0  0  0  0  0  0  0  0  0  0  0  0
    4.7699   -7.8769    0.0000 N   0  0  0  0  0  0  0  0  0  0  0  0
    3.5354   -8.7290    0.0000 C   0  0  0  0  0  0  0  0  0  0  0  0
    3.3426  -10.2166    0.0000 C   0  0  0  0  0  0  0  0  0  0  0  0
    1.9580  -10.7934    0.0000 C   0  0  0  0  0  0  0  0  0  0  0  0
    0.7661   -9.8826    0.0000 C   0  0  0  0  0  0  0  0  0  0  0  0
    0.9589   -8.3951    0.0000 C   0  0  0  0  0  0  0  0  0  0  0  0
    2.3436   -7.8183    0.0000 C   0  0  0  0  0  0  0  0  0  0  0  0
    2.7750   -1.4564    0.0000 C   0  0  0  0  0  0  0  0  0  0  0  0
    4.1031   -2.1535    0.0000 O   0  0  0  0  0  0  0  0  0  0  0  0
  1  2  1  0
  2  3  1  0
  3  4  2  0
  3  5  1  0
  5  6  1  0
  6  7  1  0
  7  8  1  0
  8  9  1  0
  9 10  1  0
 10 11  1  0
 11 12  1  0
 12 13  2  0
 12 14  1  0
 14 15  1  0
 15 16  1  0
 16 17  1  0
 17 18  1  0
 18 19  1  0
 19 20  2  0
 19 21  1  0
 14 22  1  0
 22 23  1  0
 23 24  2  0
 23 25  1  0
 25 26  1  0
 26 27  1  0
 27 28  1  0
 28 29  1  0
 29 30  1  0
 29 31  1  0
 27 32  1  0
 32 33  2  0
 32 34  1  0
 34 35  1  0
 35 36  1  0
 36 37  1  0
 37 38  1  0
 38 39  2  0
 39 40  1  0
 40 41  1  0
 41 42  2  0
 42 43  1  0
 43 44  2  0
 44 45  1  0
 45 46  2  0
 35 47  1  0
 47 48  2  0
 47 10  1  0
 46 38  1  0
 46 41  1  0
M  END
>  <molecule_chembl_id>  (694) 
CHEMBL2170019

>  <canonical_smiles>  (694) 
CCC(=O)CCCCCC1NC(=O)C(CCCNC(=N)N)NC(=O)CCN(CC(C)C)C(=O)CN(CCc2c[nH]c3ccccc23)C1=O

>  <pchembl_value_mean>  (694) 
6.52

>  <document_chembl_id>  (694) 
CHEMBL2169795

$$$$

     RDKit          2D

 39 42  0  0  0  0  0  0  0  0999 V2000
  -12.2680  -17.2445    0.0000 C   0  0  0  0  0  0  0  0  0  0  0  0
  -10.8414  -16.7810    0.0000 C   0  0  0  0  0  0  0  0  0  0  0  0
  -10.5295  -15.3138    0.0000 C   0  0  0  0  0  0  0  0  0  0  0  0
   -9.1029  -14.8503    0.0000 N   0  0  0  0  0  0  0  0  0  0  0  0
   -8.7911  -13.3831    0.0000 N   0  0  0  0  0  0  0  0  0  0  0  0
   -7.3645  -12.9195    0.0000 C   0  0  0  0  0  0  0  0  0  0  0  0
   -6.2498  -13.9232    0.0000 O   0  0  0  0  0  0  0  0  0  0  0  0
   -7.0526  -11.4523    0.0000 C   0  0  0  0  0  0  0  0  0  0  0  0
   -8.1673  -10.4486    0.0000 C   0  0  0  0  0  0  0  0  0  0  0  0
   -7.8555   -8.9814    0.0000 C   0  0  0  0  0  0  0  0  0  0  0  0
   -6.4289   -8.5179    0.0000 C   0  0  0  0  0  0  0  0  0  0  0  0
   -6.1170   -7.0506    0.0000 C   0  0  0  0  0  0  0  0  0  0  0  0
   -4.6904   -6.5871    0.0000 N   0  0  0  0  0  0  0  0  0  0  0  0
   -4.3786   -5.1199    0.0000 C   0  0  0  0  0  0  0  0  0  0  0  0
   -5.4933   -4.1162    0.0000 O   0  0  0  0  0  0  0  0  0  0  0  0
   -2.9520   -4.6564    0.0000 C   0  0  0  0  0  0  0  0  0  0  0  0
   -2.6401   -3.1891    0.0000 C   0  0  0  0  0  0  0  0  0  0  0  0
   -1.2135   -2.7256    0.0000 C   0  0  0  0  0  0  0  0  0  0  0  0
   -0.0000   -3.6073    0.0000 C   0  0  0  0  0  0  0  0  0  0  0  0
    1.2135   -2.7256    0.0000 N   0  0  0  0  0  0  0  0  0  0  0  0
    0.7500   -1.2990    0.0000 C   0  0  0  0  0  0  0  0  0  0  0  0
    1.5000    0.0000    0.0000 C   0  0  0  0  0  0  0  0  0  0  0  0
    0.7500    1.2990    0.0000 C   0  0  0  0  0  0  0  0  0  0  0  0
   -0.7500    1.2990    0.0000 C   0  0  0  0  0  0  0  0  0  0  0  0
   -1.5000    0.0000    0.0000 C   0  0  0  0  0  0  0  0  0  0  0  0
   -0.7500   -1.2990    0.0000 C   0  0  0  0  0  0  0  0  0  0  0  0
   -1.8373   -5.6601    0.0000 N   0  0  0  0  0  0  0  0  0  0  0  0
   -2.1491   -7.1273    0.0000 C   0  0  0  0  0  0  0  0  0  0  0  0
   -3.5757   -7.5908    0.0000 O   0  0  0  0  0  0  0  0  0  0  0  0
   -1.0344   -8.1310    0.0000 C   0  0  0  0  0  0  0  0  0  0  0  0
   -1.3463   -9.5982    0.0000 C   0  0  0  0  0  0  0  0  0  0  0  0
   -0.2316  -10.6019    0.0000 C   0  0  0  0  0  0  0  0  0  0  0  0
    1.1950  -10.1384    0.0000 C   0  0  0  0  0  0  0  0  0  0  0  0
    2.3097  -11.1421    0.0000 O   0  0  0  0  0  0  0  0  0  0  0  0
    1.9979  -12.6093    0.0000 C   0  0  0  0  0  0  0  0  0  0  0  0
    1.5069   -8.6712    0.0000 C   0  0  0  0  0  0  0  0  0  0  0  0
    0.3922   -7.6675    0.0000 C   0  0  0  0  0  0  0  0  0  0  0  0
   -5.3142   -9.5216    0.0000 C   0  0  0  0  0  0  0  0  0  0  0  0
   -5.6260  -10.9888    0.0000 C   0  0  0  0  0  0  0  0  0  0  0  0
  1  2  1  0
  2  3  1  0
  3  4  1  0
  4  5  1  0
  5  6  1  0
  6  7  2  0
  6  8  1  0
  8  9  2  0
  9 10  1  0
 10 11  2  0
 11 12  1  0
 12 13  1  0
 13 14  1  0
 14 15  2  0
 14 16  1  0
 16 17  1  0
 17 18  1  0
 18 19  2  0
 19 20  1  0
 20 21  1  0
 21 22  2  0
 22 23  1  0
 23 24  2  0
 24 25  1  0
 25 26  2  0
 16 27  1  0
 27 28  1  0
 28 29  2  0
 28 30  1  0
 30 31  2  0
 31 32  1  0
 32 33  2  0
 33 34  1  0
 34 35  1  0
 33 36  1  0
 36 37  2  0
 11 38  1  0
 38 39  2  0
 39  8  1  0
 26 18  1  0
 37 30  1  0
 26 21  1  0
M  END
>  <molecule_chembl_id>  (695) 
CHEMBL4086442

>  <canonical_smiles>  (695) 
CCCNNC(=O)c1ccc(CNC(=O)C(Cc2c[nH]c3ccccc23)NC(=O)c2ccc(OC)cc2)cc1

>  <pchembl_value_mean>  (695) 
6.526

>  <document_chembl_id>  (695) 
CHEMBL4020839

$$$$

     RDKit          2D

 36 40  0  0  0  0  0  0  0  0999 V2000
  -15.0664   11.4770    0.0000 C   0  0  0  0  0  0  0  0  0  0  0  0
  -13.5746   11.3202    0.0000 C   0  0  0  0  0  0  0  0  0  0  0  0
  -12.9645    9.9499    0.0000 C   0  0  0  0  0  0  0  0  0  0  0  0
  -13.8462    8.7364    0.0000 O   0  0  0  0  0  0  0  0  0  0  0  0
  -11.4727    9.7931    0.0000 C   0  0  0  0  0  0  0  0  0  0  0  0
  -10.8626    8.4228    0.0000 C   0  0  0  0  0  0  0  0  0  0  0  0
   -9.3709    8.2660    0.0000 C   0  0  0  0  0  0  0  0  0  0  0  0
   -8.7607    6.8957    0.0000 C   0  0  0  0  0  0  0  0  0  0  0  0
   -7.2690    6.7389    0.0000 C   0  0  0  0  0  0  0  0  0  0  0  0
   -6.6589    5.3686    0.0000 C   0  0  0  0  0  0  0  0  0  0  0  0
   -7.5405    4.1551    0.0000 N   0  0  0  0  0  0  0  0  0  0  0  0
   -9.0323    4.3118    0.0000 C   0  0  0  0  0  0  0  0  0  0  0  0
   -9.6424    5.6822    0.0000 O   0  0  0  0  0  0  0  0  0  0  0  0
   -9.9140    3.0983    0.0000 C   0  0  0  0  0  0  0  0  0  0  0  0
  -10.0708    1.6065    0.0000 C   0  0  0  0  0  0  0  0  0  0  0  0
  -11.2843    2.4882    0.0000 C   0  0  0  0  0  0  0  0  0  0  0  0
  -11.8944    3.8585    0.0000 C   0  0  0  0  0  0  0  0  0  0  0  0
  -13.3862    4.0153    0.0000 C   0  0  0  0  0  0  0  0  0  0  0  0
  -14.2679    2.8018    0.0000 N   0  0  0  0  0  0  0  0  0  0  0  0
  -15.7597    2.9586    0.0000 C   0  0  0  0  0  0  0  0  0  0  0  0
  -13.6578    1.4315    0.0000 C   0  0  0  0  0  0  0  0  0  0  0  0
  -12.1660    1.2747    0.0000 C   0  0  0  0  0  0  0  0  0  0  0  0
   -5.1671    5.2118    0.0000 C   0  0  0  0  0  0  0  0  0  0  0  0
   -4.1634    6.3265    0.0000 N   0  0  0  0  0  0  0  0  0  0  0  0
   -2.7931    5.7164    0.0000 C   0  0  0  0  0  0  0  0  0  0  0  0
   -2.9499    4.2246    0.0000 C   0  0  0  0  0  0  0  0  0  0  0  0
   -1.8351    3.2209    0.0000 C   0  0  0  0  0  0  0  0  0  0  0  0
   -0.4086    3.6844    0.0000 C   0  0  0  0  0  0  0  0  0  0  0  0
    0.7062    2.6807    0.0000 C   0  0  0  0  0  0  0  0  0  0  0  0
    0.3943    1.2135    0.0000 N   0  0  0  0  0  0  0  0  0  0  0  0
    1.2760    0.0000    0.0000 N   0  0  0  0  0  0  0  0  0  0  0  0
    0.3943   -1.2135    0.0000 C   0  0  0  0  0  0  0  0  0  0  0  0
   -1.0323   -0.7500    0.0000 N   0  0  0  0  0  0  0  0  0  0  0  0
   -1.0323    0.7500    0.0000 C   0  0  0  0  0  0  0  0  0  0  0  0
   -2.1470    1.7537    0.0000 C   0  0  0  0  0  0  0  0  0  0  0  0
   -4.4171    3.9127    0.0000 N   0  0  0  0  0  0  0  0  0  0  0  0
  1  2  1  0
  2  3  1  0
  3  4  2  0
  3  5  1  0
  5  6  1  0
  6  7  1  0
  7  8  1  0
  8  9  1  0
  9 10  1  0
 10 11  1  0
 11 12  1  0
 12 13  2  0
 12 14  1  0
 14 15  1  0
 15 16  1  0
 16 17  1  0
 17 18  1  0
 18 19  1  0
 19 20  1  0
 19 21  1  0
 21 22  1  0
 10 23  1  0
 23 24  2  0
 24 25  1  0
 25 26  2  0
 26 27  1  0
 27 28  1  0
 28 29  2  0
 29 30  1  0
 30 31  1  0
 31 32  2  0
 32 33  1  0
 33 34  2  0
 34 35  1  0
 26 36  1  0
 16 14  1  0
 36 23  1  0
 22 16  1  0
 35 27  2  0
 34 30  1  0
M  END
>  <molecule_chembl_id>  (696) 
CHEMBL4745945

>  <canonical_smiles>  (696) 
CCC(=O)CCCCCC(NC(=O)C1CC12CCN(C)CC2)c1ncc(-c2ccn3ncnc3c2)[nH]1

>  <pchembl_value_mean>  (696) 
6.53

>  <document_chembl_id>  (696) 
CHEMBL4680369

$$$$

     RDKit          2D

 40 43  0  0  0  0  0  0  0  0999 V2000
    1.9979  -12.6093    0.0000 C   0  0  0  0  0  0  0  0  0  0  0  0
    2.3097  -11.1421    0.0000 O   0  0  0  0  0  0  0  0  0  0  0  0
    1.1950  -10.1384    0.0000 C   0  0  0  0  0  0  0  0  0  0  0  0
   -0.2316  -10.6019    0.0000 C   0  0  0  0  0  0  0  0  0  0  0  0
   -1.3463   -9.5982    0.0000 C   0  0  0  0  0  0  0  0  0  0  0  0
   -1.0344   -8.1310    0.0000 C   0  0  0  0  0  0  0  0  0  0  0  0
   -2.1491   -7.1273    0.0000 C   0  0  0  0  0  0  0  0  0  0  0  0
   -3.5757   -7.5908    0.0000 O   0  0  0  0  0  0  0  0  0  0  0  0
   -1.8373   -5.6601    0.0000 N   0  0  0  0  0  0  0  0  0  0  0  0
   -2.9520   -4.6564    0.0000 C   0  0  0  0  0  0  0  0  0  0  0  0
   -2.6401   -3.1891    0.0000 C   0  0  0  0  0  0  0  0  0  0  0  0
   -1.2135   -2.7256    0.0000 C   0  0  0  0  0  0  0  0  0  0  0  0
   -0.0000   -3.6073    0.0000 C   0  0  0  0  0  0  0  0  0  0  0  0
    1.2135   -2.7256    0.0000 N   0  0  0  0  0  0  0  0  0  0  0  0
    0.7500   -1.2990    0.0000 C   0  0  0  0  0  0  0  0  0  0  0  0
    1.5000    0.0000    0.0000 C   0  0  0  0  0  0  0  0  0  0  0  0
    0.7500    1.2990    0.0000 C   0  0  0  0  0  0  0  0  0  0  0  0
   -0.7500    1.2990    0.0000 C   0  0  0  0  0  0  0  0  0  0  0  0
   -1.5000    0.0000    0.0000 C   0  0  0  0  0  0  0  0  0  0  0  0
   -0.7500   -1.2990    0.0000 C   0  0  0  0  0  0  0  0  0  0  0  0
   -4.3786   -5.1199    0.0000 C   0  0  0  0  0  0  0  0  0  0  0  0
   -5.4933   -4.1162    0.0000 O   0  0  0  0  0  0  0  0  0  0  0  0
   -4.6904   -6.5871    0.0000 N   0  0  0  0  0  0  0  0  0  0  0  0
   -6.1170   -7.0506    0.0000 C   0  0  0  0  0  0  0  0  0  0  0  0
   -6.4289   -8.5179    0.0000 C   0  0  0  0  0  0  0  0  0  0  0  0
   -7.8555   -8.9814    0.0000 C   0  0  0  0  0  0  0  0  0  0  0  0
   -8.1673  -10.4486    0.0000 C   0  0  0  0  0  0  0  0  0  0  0  0
   -9.5939  -10.9121    0.0000 C   0  0  0  0  0  0  0  0  0  0  0  0
   -9.9058  -12.3794    0.0000 C   0  0  0  0  0  0  0  0  0  0  0  0
   -8.7911  -13.3831    0.0000 O   0  0  0  0  0  0  0  0  0  0  0  0
  -11.3324  -12.8429    0.0000 N   0  0  0  0  0  0  0  0  0  0  0  0
  -11.6442  -14.3101    0.0000 C   0  0  0  0  0  0  0  0  0  0  0  0
  -13.0708  -14.7736    0.0000 C   0  0  0  0  0  0  0  0  0  0  0  0
  -13.3827  -16.2409    0.0000 C   0  0  0  0  0  0  0  0  0  0  0  0
  -12.2680  -17.2445    0.0000 C   0  0  0  0  0  0  0  0  0  0  0  0
  -10.8414  -16.7810    0.0000 C   0  0  0  0  0  0  0  0  0  0  0  0
  -10.5295  -15.3138    0.0000 C   0  0  0  0  0  0  0  0  0  0  0  0
   -9.1029  -14.8503    0.0000 N   0  0  0  0  0  0  0  0  0  0  0  0
    0.3922   -7.6675    0.0000 C   0  0  0  0  0  0  0  0  0  0  0  0
    1.5069   -8.6712    0.0000 C   0  0  0  0  0  0  0  0  0  0  0  0
  1  2  1  0
  2  3  1  0
  3  4  2  0
  4  5  1  0
  5  6  2  0
  6  7  1  0
  7  8  2  0
  7  9  1  0
  9 10  1  0
 10 11  1  0
 11 12  1  0
 12 13  2  0
 13 14  1  0
 14 15  1  0
 15 16  2  0
 16 17  1  0
 17 18  2  0
 18 19  1  0
 19 20  2  0
 10 21  1  0
 21 22  2  0
 21 23  1  0
 23 24  1  0
 24 25  1  0
 25 26  1  0
 26 27  1  0
 27 28  1  0
 28 29  1  0
 29 30  2  0
 29 31  1  0
 31 32  1  0
 32 33  2  0
 33 34  1  0
 34 35  2  0
 35 36  1  0
 36 37  2  0
 37 38  1  0
  6 39  1  0
 39 40  2  0
 40  3  1  0
 20 12  1  0
 37 32  1  0
 20 15  1  0
M  END
>  <molecule_chembl_id>  (697) 
CHEMBL4103456

>  <canonical_smiles>  (697) 
COc1ccc(C(=O)NC(Cc2c[nH]c3ccccc23)C(=O)NCCCCCC(=O)Nc2ccccc2N)cc1

>  <pchembl_value_mean>  (697) 
6.53

>  <document_chembl_id>  (697) 
CHEMBL4020724

$$$$

     RDKit          2D

 35 37  0  0  0  0  0  0  0  0999 V2000
    3.0000    0.0000    0.0000 C   0  0  0  0  0  0  0  0  0  0  0  0
    1.5000    0.0000    0.0000 C   0  0  0  0  0  0  0  0  0  0  0  0
    0.7500   -1.2990    0.0000 C   0  0  0  0  0  0  0  0  0  0  0  0
   -0.7500   -1.2990    0.0000 C   0  0  0  0  0  0  0  0  0  0  0  0
   -1.5000    0.0000    0.0000 C   0  0  0  0  0  0  0  0  0  0  0  0
   -3.0000    0.0000    0.0000 C   0  0  0  0  0  0  0  0  0  0  0  0
   -3.8817   -1.2135    0.0000 C   0  0  0  0  0  0  0  0  0  0  0  0
   -5.3083   -0.7500    0.0000 C   0  0  0  0  0  0  0  0  0  0  0  0
   -6.5218   -1.6317    0.0000 C   0  0  0  0  0  0  0  0  0  0  0  0
   -6.3650   -3.1235    0.0000 O   0  0  0  0  0  0  0  0  0  0  0  0
   -7.8921   -1.0216    0.0000 N   0  0  0  0  0  0  0  0  0  0  0  0
   -9.1056   -1.9033    0.0000 C   0  0  0  0  0  0  0  0  0  0  0  0
  -10.4760   -1.2931    0.0000 C   0  0  0  0  0  0  0  0  0  0  0  0
  -11.6895   -2.1748    0.0000 C   0  0  0  0  0  0  0  0  0  0  0  0
  -13.0598   -1.5647    0.0000 C   0  0  0  0  0  0  0  0  0  0  0  0
  -14.2733   -2.4464    0.0000 C   0  0  0  0  0  0  0  0  0  0  0  0
  -15.6436   -1.8363    0.0000 C   0  0  0  0  0  0  0  0  0  0  0  0
  -16.8572   -2.7180    0.0000 C   0  0  0  0  0  0  0  0  0  0  0  0
  -16.7004   -4.2098    0.0000 O   0  0  0  0  0  0  0  0  0  0  0  0
  -18.2275   -2.1079    0.0000 N   0  0  0  0  0  0  0  0  0  0  0  0
  -19.4410   -2.9895    0.0000 O   0  0  0  0  0  0  0  0  0  0  0  0
   -5.3083    0.7500    0.0000 N   0  0  0  0  0  0  0  0  0  0  0  0
   -3.8817    1.2135    0.0000 N   0  0  0  0  0  0  0  0  0  0  0  0
   -3.4182    2.6401    0.0000 C   0  0  0  0  0  0  0  0  0  0  0  0
   -1.9509    2.9520    0.0000 C   0  0  0  0  0  0  0  0  0  0  0  0
   -1.4874    4.3786    0.0000 C   0  0  0  0  0  0  0  0  0  0  0  0
   -2.4911    5.4933    0.0000 C   0  0  0  0  0  0  0  0  0  0  0  0
   -2.0276    6.9199    0.0000 S   0  0  0  0  0  0  0  0  0  0  0  0
   -1.5641    8.3464    0.0000 N   0  0  0  0  0  0  0  0  0  0  0  0
   -0.6010    6.4563    0.0000 O   0  0  0  0  0  0  0  0  0  0  0  0
   -3.4542    7.3834    0.0000 O   0  0  0  0  0  0  0  0  0  0  0  0
   -3.9583    5.1814    0.0000 C   0  0  0  0  0  0  0  0  0  0  0  0
   -4.4218    3.7548    0.0000 C   0  0  0  0  0  0  0  0  0  0  0  0
   -0.7500    1.2990    0.0000 C   0  0  0  0  0  0  0  0  0  0  0  0
    0.7500    1.2990    0.0000 C   0  0  0  0  0  0  0  0  0  0  0  0
  1  2  1  0
  2  3  2  0
  3  4  1  0
  4  5  2  0
  5  6  1  0
  6  7  2  0
  7  8  1  0
  8  9  1  0
  9 10  2  0
  9 11  1  0
 11 12  1  0
 12 13  1  0
 13 14  1  0
 14 15  1  0
 15 16  1  0
 16 17  1  0
 17 18  1  0
 18 19  2  0
 18 20  1  0
 20 21  1  0
  8 22  2  0
 22 23  1  0
 23 24  1  0
 24 25  2  0
 25 26  1  0
 26 27  2  0
 27 28  1  0
 28 29  1  0
 28 30  2  0
 28 31  2  0
 27 32  1  0
 32 33  2  0
  5 34  1  0
 34 35  2  0
 35  2  1  0
 23  6  1  0
 33 24  1  0
M  END
>  <molecule_chembl_id>  (698) 
CHEMBL3884279

>  <canonical_smiles>  (698) 
Cc1ccc(-c2cc(C(=O)NCCCCCCC(=O)NO)nn2-c2ccc(S(N)(=O)=O)cc2)cc1

>  <pchembl_value_mean>  (698) 
6.53

>  <document_chembl_id>  (698) 
CHEMBL3875218

$$$$

     RDKit          2D

 31 33  0  0  0  0  0  0  0  0999 V2000
    6.0000   -2.5981    0.0000 C   0  0  0  0  0  0  0  0  0  0  0  0
    5.2500   -1.2990    0.0000 C   0  0  0  0  0  0  0  0  0  0  0  0
    3.7500   -1.2990    0.0000 N   0  0  0  0  0  0  0  0  0  0  0  0
    3.0000   -2.5981    0.0000 C   0  0  0  0  0  0  0  0  0  0  0  0
    3.7500   -3.8971    0.0000 C   0  0  0  0  0  0  0  0  0  0  0  0
    3.0000    0.0000    0.0000 C   0  0  0  0  0  0  0  0  0  0  0  0
    1.5000    0.0000    0.0000 C   0  0  0  0  0  0  0  0  0  0  0  0
    0.7500   -1.2990    0.0000 C   0  0  0  0  0  0  0  0  0  0  0  0
   -0.7500   -1.2990    0.0000 C   0  0  0  0  0  0  0  0  0  0  0  0
   -1.5000    0.0000    0.0000 C   0  0  0  0  0  0  0  0  0  0  0  0
   -3.0000    0.0000    0.0000 C   0  0  0  0  0  0  0  0  0  0  0  0
   -3.7500    1.2990    0.0000 C   0  0  0  0  0  0  0  0  0  0  0  0
   -5.2500    1.2990    0.0000 C   0  0  0  0  0  0  0  0  0  0  0  0
   -6.0000    2.5981    0.0000 O   0  0  0  0  0  0  0  0  0  0  0  0
   -7.5000    2.5981    0.0000 C   0  0  0  0  0  0  0  0  0  0  0  0
   -8.2500    1.2990    0.0000 O   0  0  0  0  0  0  0  0  0  0  0  0
   -8.2500    3.8971    0.0000 N   0  0  0  0  0  0  0  0  0  0  0  0
   -9.7500    3.8971    0.0000 C   0  0  0  0  0  0  0  0  0  0  0  0
  -10.5000    5.1962    0.0000 C   0  0  0  0  0  0  0  0  0  0  0  0
  -12.0000    5.1962    0.0000 C   0  0  0  0  0  0  0  0  0  0  0  0
  -12.7500    3.8971    0.0000 C   0  0  0  0  0  0  0  0  0  0  0  0
  -14.2500    3.8971    0.0000 C   0  0  0  0  0  0  0  0  0  0  0  0
  -15.0000    2.5981    0.0000 O   0  0  0  0  0  0  0  0  0  0  0  0
  -15.0000    5.1962    0.0000 N   0  0  0  0  0  0  0  0  0  0  0  0
  -16.5000    5.1962    0.0000 O   0  0  0  0  0  0  0  0  0  0  0  0
  -12.0000    2.5981    0.0000 C   0  0  0  0  0  0  0  0  0  0  0  0
  -10.5000    2.5981    0.0000 C   0  0  0  0  0  0  0  0  0  0  0  0
   -3.0000    2.5981    0.0000 C   0  0  0  0  0  0  0  0  0  0  0  0
   -1.5000    2.5981    0.0000 C   0  0  0  0  0  0  0  0  0  0  0  0
   -0.7500    1.2990    0.0000 C   0  0  0  0  0  0  0  0  0  0  0  0
    0.7500    1.2990    0.0000 C   0  0  0  0  0  0  0  0  0  0  0  0
  1  2  1  0
  2  3  1  0
  3  4  1  0
  4  5  1  0
  3  6  1  0
  6  7  1  0
  7  8  2  0
  8  9  1  0
  9 10  2  0
 10 11  1  0
 11 12  2  0
 12 13  1  0
 13 14  1  0
 14 15  1  0
 15 16  2  0
 15 17  1  0
 17 18  1  0
 18 19  2  0
 19 20  1  0
 20 21  2  0
 21 22  1  0
 22 23  2  0
 22 24  1  0
 24 25  1  0
 21 26  1  0
 26 27  2  0
 12 28  1  0
 28 29  2  0
 29 30  1  0
 30 31  2  0
 31  7  1  0
 30 10  1  0
 27 18  1  0
M  END
>  <molecule_chembl_id>  (699) 
CHEMBL1213492

>  <canonical_smiles>  (699) 
CCN(CC)Cc1ccc2cc(COC(=O)Nc3ccc(C(=O)NO)cc3)ccc2c1

>  <pchembl_value_mean>  (699) 
6.53

>  <document_chembl_id>  (699) 
CHEMBL4765362

$$$$

     RDKit          2D

 26 27  0  0  0  0  0  0  0  0999 V2000
   -2.5981   -8.1073    0.0000 C   0  0  0  0  0  0  0  0  0  0  0  0
   -1.2990   -7.3573    0.0000 C   0  0  0  0  0  0  0  0  0  0  0  0
   -1.2990   -5.8573    0.0000 C   0  0  0  0  0  0  0  0  0  0  0  0
   -0.0000   -5.1073    0.0000 C   0  0  0  0  0  0  0  0  0  0  0  0
   -0.0000   -3.6073    0.0000 C   0  0  0  0  0  0  0  0  0  0  0  0
    1.2135   -2.7256    0.0000 N   0  0  0  0  0  0  0  0  0  0  0  0
    0.7500   -1.2990    0.0000 C   0  0  0  0  0  0  0  0  0  0  0  0
    1.5000    0.0000    0.0000 C   0  0  0  0  0  0  0  0  0  0  0  0
    0.7500    1.2990    0.0000 C   0  0  0  0  0  0  0  0  0  0  0  0
    1.5000    2.5981    0.0000 C   0  0  0  0  0  0  0  0  0  0  0  0
    3.0000    2.5981    0.0000 C   0  0  0  0  0  0  0  0  0  0  0  0
    3.7500    3.8971    0.0000 C   0  0  0  0  0  0  0  0  0  0  0  0
    3.0000    5.1962    0.0000 O   0  0  0  0  0  0  0  0  0  0  0  0
    5.2500    3.8971    0.0000 N   0  0  0  0  0  0  0  0  0  0  0  0
    6.0000    5.1962    0.0000 O   0  0  0  0  0  0  0  0  0  0  0  0
   -0.7500    1.2990    0.0000 C   0  0  0  0  0  0  0  0  0  0  0  0
   -1.5000    0.0000    0.0000 C   0  0  0  0  0  0  0  0  0  0  0  0
   -0.7500   -1.2990    0.0000 C   0  0  0  0  0  0  0  0  0  0  0  0
   -1.2135   -2.7256    0.0000 N   0  0  0  0  0  0  0  0  0  0  0  0
   -2.6401   -3.1891    0.0000 C   0  0  0  0  0  0  0  0  0  0  0  0
   -3.7548   -2.1855    0.0000 C   0  0  0  0  0  0  0  0  0  0  0  0
   -5.1814   -2.6490    0.0000 N   0  0  0  0  0  0  0  0  0  0  0  0
   -6.2961   -1.6453    0.0000 C   0  0  0  0  0  0  0  0  0  0  0  0
   -7.7227   -2.1088    0.0000 C   0  0  0  0  0  0  0  0  0  0  0  0
   -5.4933   -4.1162    0.0000 C   0  0  0  0  0  0  0  0  0  0  0  0
   -6.9199   -4.5797    0.0000 C   0  0  0  0  0  0  0  0  0  0  0  0
  1  2  1  0
  2  3  1  0
  3  4  1  0
  4  5  1  0
  5  6  2  0
  6  7  1  0
  7  8  2  0
  8  9  1  0
  9 10  1  0
 10 11  2  3
 11 12  1  0
 12 13  2  0
 12 14  1  0
 14 15  1  0
  9 16  2  0
 16 17  1  0
 17 18  2  0
 18 19  1  0
 19 20  1  0
 20 21  1  0
 21 22  1  0
 22 23  1  0
 23 24  1  0
 22 25  1  0
 25 26  1  0
 19  5  1  0
 18  7  1  0
M  END
>  <molecule_chembl_id>  (700) 
CHEMBL1851943

>  <canonical_smiles>  (700) 
CCCCc1nc2cc(C=CC(=O)NO)ccc2n1CCN(CC)CC

>  <pchembl_value_mean>  (700) 
6.54

>  <document_chembl_id>  (700) 
CHEMBL4706478

$$$$

     RDKit          2D

 41 44  0  0  0  0  0  0  0  0999 V2000
    3.0000    0.0000    0.0000 N   0  0  0  0  0  0  0  0  0  0  0  0
    1.5000    0.0000    0.0000 C   0  0  0  0  0  0  0  0  0  0  0  0
    0.7500   -1.2990    0.0000 C   0  0  0  0  0  0  0  0  0  0  0  0
   -0.7500   -1.2990    0.0000 C   0  0  0  0  0  0  0  0  0  0  0  0
   -1.5000    0.0000    0.0000 C   0  0  0  0  0  0  0  0  0  0  0  0
   -0.7500    1.2990    0.0000 C   0  0  0  0  0  0  0  0  0  0  0  0
    0.7500    1.2990    0.0000 C   0  0  0  0  0  0  0  0  0  0  0  0
    1.5000    2.5981    0.0000 N   0  0  0  0  0  0  0  0  0  0  0  0
    0.7500    3.8971    0.0000 C   0  0  0  0  0  0  0  0  0  0  0  0
   -0.7500    3.8971    0.0000 O   0  0  0  0  0  0  0  0  0  0  0  0
    1.5000    5.1962    0.0000 C   0  0  0  0  0  0  0  0  0  0  0  0
    0.7500    6.4952    0.0000 C   0  0  0  0  0  0  0  0  0  0  0  0
    1.5000    7.7942    0.0000 C   0  0  0  0  0  0  0  0  0  0  0  0
    3.0000    7.7942    0.0000 C   0  0  0  0  0  0  0  0  0  0  0  0
    3.7500    9.0933    0.0000 C   0  0  0  0  0  0  0  0  0  0  0  0
    3.0000   10.3923    0.0000 C   0  0  0  0  0  0  0  0  0  0  0  0
    3.7500   11.6913    0.0000 C   0  0  0  0  0  0  0  0  0  0  0  0
    3.0000   12.9904    0.0000 N   0  0  0  0  0  0  0  0  0  0  0  0
    3.7500   14.2894    0.0000 C   0  0  0  0  0  0  0  0  0  0  0  0
    3.0000   15.5885    0.0000 C   0  0  0  0  0  0  0  0  0  0  0  0
    3.7500   16.8875    0.0000 N   0  0  0  0  0  0  0  0  0  0  0  0
    5.2500   16.8875    0.0000 C   0  0  0  0  0  0  0  0  0  0  0  0
    6.0000   18.1865    0.0000 C   0  0  0  0  0  0  0  0  0  0  0  0
    5.2500   19.4856    0.0000 O   0  0  0  0  0  0  0  0  0  0  0  0
    3.7500   19.4856    0.0000 C   0  0  0  0  0  0  0  0  0  0  0  0
    3.0000   18.1865    0.0000 C   0  0  0  0  0  0  0  0  0  0  0  0
    5.2500   11.6913    0.0000 C   0  0  0  0  0  0  0  0  0  0  0  0
    6.0000   10.3923    0.0000 O   0  0  0  0  0  0  0  0  0  0  0  0
    6.0000   12.9904    0.0000 N   0  0  0  0  0  0  0  0  0  0  0  0
    7.5000   12.9904    0.0000 C   0  0  0  0  0  0  0  0  0  0  0  0
    8.2500   11.6913    0.0000 C   0  0  0  0  0  0  0  0  0  0  0  0
    9.7500   11.6913    0.0000 C   0  0  0  0  0  0  0  0  0  0  0  0
   10.5000   12.9904    0.0000 C   0  0  0  0  0  0  0  0  0  0  0  0
   12.0000   12.9904    0.0000 C   0  0  0  0  0  0  0  0  0  0  0  0
   13.5000   12.9904    0.0000 F   0  0  0  0  0  0  0  0  0  0  0  0
   12.0000   11.4904    0.0000 F   0  0  0  0  0  0  0  0  0  0  0  0
   12.0000   14.4904    0.0000 F   0  0  0  0  0  0  0  0  0  0  0  0
    9.7500   14.2894    0.0000 C   0  0  0  0  0  0  0  0  0  0  0  0
    8.2500   14.2894    0.0000 C   0  0  0  0  0  0  0  0  0  0  0  0
    1.5000   10.3923    0.0000 C   0  0  0  0  0  0  0  0  0  0  0  0
    0.7500    9.0933    0.0000 C   0  0  0  0  0  0  0  0  0  0  0  0
  1  2  1  0
  2  3  2  0
  3  4  1  0
  4  5  2  0
  5  6  1  0
  6  7  2  0
  7  8  1  0
  8  9  1  0
  9 10  2  0
  9 11  1  0
 11 12  2  3
 12 13  1  0
 13 14  2  0
 14 15  1  0
 15 16  2  0
 16 17  1  0
 17 18  1  0
 18 19  1  0
 19 20  1  0
 20 21  1  0
 21 22  1  0
 22 23  1  0
 23 24  1  0
 24 25  1  0
 25 26  1  0
 17 27  1  0
 27 28  2  0
 27 29  1  0
 29 30  1  0
 30 31  2  0
 31 32  1  0
 32 33  2  0
 33 34  1  0
 34 35  1  0
 34 36  1  0
 34 37  1  0
 33 38  1  0
 38 39  2  0
 16 40  1  0
 40 41  2  0
  7  2  1  0
 41 13  1  0
 26 21  1  0
 39 30  1  0
M  END
>  <molecule_chembl_id>  (701) 
CHEMBL1643308

>  <canonical_smiles>  (701) 
Nc1ccccc1NC(=O)C=Cc1ccc(C(NCCN2CCOCC2)C(=O)Nc2ccc(C(F)(F)F)cc2)cc1

>  <pchembl_value_mean>  (701) 
6.54

>  <document_chembl_id>  (701) 
CHEMBL1641604

$$$$

     RDKit          2D

 42 44  0  0  0  0  0  0  0  0999 V2000
   12.1339   -5.1962    0.0000 C   0  0  0  0  0  0  0  0  0  0  0  0
   11.3839   -3.8971    0.0000 C   0  0  0  0  0  0  0  0  0  0  0  0
    9.8839   -3.8971    0.0000 C   0  0  0  0  0  0  0  0  0  0  0  0
    9.1339   -5.1962    0.0000 O   0  0  0  0  0  0  0  0  0  0  0  0
    9.1339   -2.5981    0.0000 C   0  0  0  0  0  0  0  0  0  0  0  0
    7.6339   -2.5981    0.0000 C   0  0  0  0  0  0  0  0  0  0  0  0
    6.8839   -1.2990    0.0000 C   0  0  0  0  0  0  0  0  0  0  0  0
    5.3839   -1.2990    0.0000 C   0  0  0  0  0  0  0  0  0  0  0  0
    4.6339    0.0000    0.0000 C   0  0  0  0  0  0  0  0  0  0  0  0
    3.1339    0.0000    0.0000 C   0  0  0  0  0  0  0  0  0  0  0  0
    2.7750    1.4564    0.0000 N   0  0  0  0  0  0  0  0  0  0  0  0
    1.7803    2.5792    0.0000 C   0  0  0  0  0  0  0  0  0  0  0  0
    2.6324    3.8137    0.0000 O   0  0  0  0  0  0  0  0  0  0  0  0
    0.3778    3.1111    0.0000 C   0  0  0  0  0  0  0  0  0  0  0  0
    0.5586    4.6001    0.0000 C   0  0  0  0  0  0  0  0  0  0  0  0
   -1.1113    2.9303    0.0000 N   0  0  0  0  0  0  0  0  0  0  0  0
   -2.3458    2.0782    0.0000 C   0  0  0  0  0  0  0  0  0  0  0  0
   -3.4686    3.0729    0.0000 O   0  0  0  0  0  0  0  0  0  0  0  0
   -3.0429    0.7500    0.0000 C   0  0  0  0  0  0  0  0  0  0  0  0
   -3.0429   -0.7500    0.0000 C   0  0  0  0  0  0  0  0  0  0  0  0
   -4.4993   -1.1090    0.0000 C   0  0  0  0  0  0  0  0  0  0  0  0
   -5.5384   -0.0272    0.0000 C   0  0  0  0  0  0  0  0  0  0  0  0
   -6.9948   -0.3861    0.0000 C   0  0  0  0  0  0  0  0  0  0  0  0
   -5.1210    1.4136    0.0000 C   0  0  0  0  0  0  0  0  0  0  0  0
   -2.3458   -2.0782    0.0000 N   0  0  0  0  0  0  0  0  0  0  0  0
   -1.1113   -2.9303    0.0000 C   0  0  0  0  0  0  0  0  0  0  0  0
   -1.6432   -4.3328    0.0000 O   0  0  0  0  0  0  0  0  0  0  0  0
    0.3778   -3.1111    0.0000 C   0  0  0  0  0  0  0  0  0  0  0  0
    0.5586   -4.6001    0.0000 C   0  0  0  0  0  0  0  0  0  0  0  0
    1.9385   -5.1881    0.0000 C   0  0  0  0  0  0  0  0  0  0  0  0
    3.1377   -4.2870    0.0000 C   0  0  0  0  0  0  0  0  0  0  0  0
    4.5177   -4.8749    0.0000 C   0  0  0  0  0  0  0  0  0  0  0  0
    4.6985   -6.3640    0.0000 C   0  0  0  0  0  0  0  0  0  0  0  0
    3.4993   -7.2651    0.0000 C   0  0  0  0  0  0  0  0  0  0  0  0
    3.6801   -8.7542    0.0000 C   0  0  0  0  0  0  0  0  0  0  0  0
    2.4809   -9.6553    0.0000 C   0  0  0  0  0  0  0  0  0  0  0  0
    1.1010   -9.0673    0.0000 C   0  0  0  0  0  0  0  0  0  0  0  0
    0.9202   -7.5783    0.0000 C   0  0  0  0  0  0  0  0  0  0  0  0
    2.1193   -6.6772    0.0000 C   0  0  0  0  0  0  0  0  0  0  0  0
    1.7803   -2.5792    0.0000 N   0  0  0  0  0  0  0  0  0  0  0  0
    2.7750   -1.4564    0.0000 C   0  0  0  0  0  0  0  0  0  0  0  0
    4.1031   -2.1535    0.0000 O   0  0  0  0  0  0  0  0  0  0  0  0
  1  2  1  0
  2  3  1  0
  3  4  2  0
  3  5  1  0
  5  6  1  0
  6  7  1  0
  7  8  1  0
  8  9  1  0
  9 10  1  0
 10 11  1  0
 11 12  1  0
 12 13  2  0
 12 14  1  0
 14 15  1  0
 14 16  1  0
 16 17  1  0
 17 18  2  0
 17 19  1  0
 19 20  1  0
 20 21  1  0
 21 22  1  0
 22 23  1  0
 22 24  1  0
 20 25  1  0
 25 26  1  0
 26 27  2  0
 26 28  1  0
 28 29  1  0
 29 30  1  0
 30 31  2  0
 31 32  1  0
 32 33  2  0
 33 34  1  0
 34 35  2  0
 35 36  1  0
 36 37  2  0
 37 38  1  0
 38 39  2  0
 28 40  1  0
 40 41  1  0
 41 42  2  0
 41 10  1  0
 39 30  1  0
 39 34  1  0
M  END
>  <molecule_chembl_id>  (702) 
CHEMBL2012815

>  <canonical_smiles>  (702) 
CCC(=O)CCCCCC1NC(=O)C(C)NC(=O)CC(CC(C)C)NC(=O)C(Cc2cccc3ccccc23)NC1=O

>  <pchembl_value_mean>  (702) 
6.54

>  <document_chembl_id>  (702) 
CHEMBL2010669

$$$$

     RDKit          2D

 24 26  0  0  0  0  0  0  0  0999 V2000
    3.7500    1.2990    0.0000 O   0  0  0  0  0  0  0  0  0  0  0  0
    3.0000    0.0000    0.0000 C   0  0  0  0  0  0  0  0  0  0  0  0
    3.7500   -1.2990    0.0000 N   0  0  0  0  0  0  0  0  0  0  0  0
    5.2500   -1.2990    0.0000 O   0  0  0  0  0  0  0  0  0  0  0  0
    1.5000    0.0000    0.0000 C   0  0  0  0  0  0  0  0  0  0  0  0
    0.7500   -1.2990    0.0000 C   0  0  0  0  0  0  0  0  0  0  0  0
   -0.7500   -1.2990    0.0000 N   0  0  0  0  0  0  0  0  0  0  0  0
   -1.5000    0.0000    0.0000 C   0  0  0  0  0  0  0  0  0  0  0  0
   -3.0000    0.0000    0.0000 N   0  0  0  0  0  0  0  0  0  0  0  0
   -3.7500    1.2990    0.0000 C   0  0  0  0  0  0  0  0  0  0  0  0
   -2.6009    2.2632    0.0000 C   0  0  0  0  0  0  0  0  0  0  0  0
   -1.1914    1.7502    0.0000 C   0  0  0  0  0  0  0  0  0  0  0  0
   -0.0423    2.7144    0.0000 C   0  0  0  0  0  0  0  0  0  0  0  0
   -0.3028    4.1916    0.0000 C   0  0  0  0  0  0  0  0  0  0  0  0
   -1.7123    4.7046    0.0000 C   0  0  0  0  0  0  0  0  0  0  0  0
   -2.8614    3.7404    0.0000 C   0  0  0  0  0  0  0  0  0  0  0  0
   -4.2709    4.2535    0.0000 C   0  0  0  0  0  0  0  0  0  0  0  0
   -5.6805    4.7665    0.0000 F   0  0  0  0  0  0  0  0  0  0  0  0
   -3.7579    5.6630    0.0000 F   0  0  0  0  0  0  0  0  0  0  0  0
   -5.0259    3.1343    0.0000 F   0  0  0  0  0  0  0  0  0  0  0  0
   -4.8991    2.2632    0.0000 C   0  0  0  0  0  0  0  0  0  0  0  0
   -5.1595    0.7860    0.0000 C   0  0  0  0  0  0  0  0  0  0  0  0
   -0.7500    1.2990    0.0000 N   0  0  0  0  0  0  0  0  0  0  0  0
    0.7500    1.2990    0.0000 C   0  0  0  0  0  0  0  0  0  0  0  0
  1  2  2  0
  2  3  1  0
  3  4  1  0
  2  5  1  0
  5  6  2  0
  6  7  1  0
  7  8  2  0
  8  9  1  0
  9 10  1  0
 10 11  1  0
 11 12  2  0
 12 13  1  0
 13 14  2  0
 14 15  1  0
 15 16  2  0
 16 17  1  0
 17 18  1  0
 17 19  1  0
 17 20  1  0
 10 21  1  0
 21 22  1  0
  8 23  1  0
 23 24  2  0
 24  5  1  0
 22 10  1  0
 16 11  1  0
M  END
>  <molecule_chembl_id>  (703) 
CHEMBL3655968

>  <canonical_smiles>  (703) 
O=C(NO)c1cnc(NC2(c3ccccc3C(F)(F)F)CC2)nc1

>  <pchembl_value_mean>  (703) 
6.54

>  <document_chembl_id>  (703) 
CHEMBL3639071

$$$$

     RDKit          2D

 32 35  0  0  0  0  0  0  0  0999 V2000
    3.7500   -1.2990    0.0000 C   0  0  0  0  0  0  0  0  0  0  0  0
    3.0000    0.0000    0.0000 O   0  0  0  0  0  0  0  0  0  0  0  0
    1.5000    0.0000    0.0000 C   0  0  0  0  0  0  0  0  0  0  0  0
    0.7500   -1.2990    0.0000 C   0  0  0  0  0  0  0  0  0  0  0  0
   -0.7500   -1.2990    0.0000 C   0  0  0  0  0  0  0  0  0  0  0  0
   -1.5000    0.0000    0.0000 C   0  0  0  0  0  0  0  0  0  0  0  0
   -3.0000    0.0000    0.0000 C   0  0  0  0  0  0  0  0  0  0  0  0
   -3.8817   -1.2135    0.0000 N   0  0  0  0  0  0  0  0  0  0  0  0
   -5.3083   -0.7500    0.0000 O   0  0  0  0  0  0  0  0  0  0  0  0
   -5.3083    0.7500    0.0000 C   0  0  0  0  0  0  0  0  0  0  0  0
   -6.5218    1.6317    0.0000 C   0  0  0  0  0  0  0  0  0  0  0  0
   -6.3650    3.1235    0.0000 N   0  0  0  0  0  0  0  0  0  0  0  0
   -7.5785    4.0051    0.0000 C   0  0  0  0  0  0  0  0  0  0  0  0
   -7.4217    5.4969    0.0000 C   0  0  0  0  0  0  0  0  0  0  0  0
   -6.0514    6.1070    0.0000 C   0  0  0  0  0  0  0  0  0  0  0  0
   -5.8946    7.5988    0.0000 C   0  0  0  0  0  0  0  0  0  0  0  0
   -7.1081    8.4805    0.0000 C   0  0  0  0  0  0  0  0  0  0  0  0
   -6.9514    9.9723    0.0000 C   0  0  0  0  0  0  0  0  0  0  0  0
   -8.1649   10.8539    0.0000 O   0  0  0  0  0  0  0  0  0  0  0  0
   -5.5810   10.5824    0.0000 N   0  0  0  0  0  0  0  0  0  0  0  0
   -5.4242   12.0742    0.0000 C   0  0  0  0  0  0  0  0  0  0  0  0
   -4.0539   12.6843    0.0000 C   0  0  0  0  0  0  0  0  0  0  0  0
   -3.8971   14.1760    0.0000 C   0  0  0  0  0  0  0  0  0  0  0  0
   -5.1107   15.0577    0.0000 C   0  0  0  0  0  0  0  0  0  0  0  0
   -6.4810   14.4476    0.0000 C   0  0  0  0  0  0  0  0  0  0  0  0
   -6.6378   12.9558    0.0000 C   0  0  0  0  0  0  0  0  0  0  0  0
   -8.0081   12.3457    0.0000 N   0  0  0  0  0  0  0  0  0  0  0  0
   -8.4785    7.8704    0.0000 C   0  0  0  0  0  0  0  0  0  0  0  0
   -8.6353    6.3786    0.0000 C   0  0  0  0  0  0  0  0  0  0  0  0
   -3.8817    1.2135    0.0000 N   0  0  0  0  0  0  0  0  0  0  0  0
   -0.7500    1.2990    0.0000 C   0  0  0  0  0  0  0  0  0  0  0  0
    0.7500    1.2990    0.0000 C   0  0  0  0  0  0  0  0  0  0  0  0
  1  2  1  0
  2  3  1  0
  3  4  2  0
  4  5  1  0
  5  6  2  0
  6  7  1  0
  7  8  2  0
  8  9  1  0
  9 10  1  0
 10 11  1  0
 11 12  1  0
 12 13  1  0
 13 14  1  0
 14 15  2  0
 15 16  1  0
 16 17  2  0
 17 18  1  0
 18 19  2  0
 18 20  1  0
 20 21  1  0
 21 22  2  0
 22 23  1  0
 23 24  2  0
 24 25  1  0
 25 26  2  0
 26 27  1  0
 17 28  1  0
 28 29  2  0
 10 30  2  0
  6 31  1  0
 31 32  2  0
 32  3  1  0
 30  7  1  0
 29 14  1  0
 26 21  1  0
M  END
>  <molecule_chembl_id>  (704) 
CHEMBL3421739

>  <canonical_smiles>  (704) 
COc1ccc(-c2noc(CNCc3ccc(C(=O)Nc4ccccc4N)cc3)n2)cc1

>  <pchembl_value_mean>  (704) 
6.54

>  <document_chembl_id>  (704) 
CHEMBL3421568

$$$$

     RDKit          2D

 38 41  0  0  0  0  0  0  0  0999 V2000
    3.7500   -1.2990    0.0000 C   0  0  0  0  0  0  0  0  0  0  0  0
    3.0000    0.0000    0.0000 O   0  0  0  0  0  0  0  0  0  0  0  0
    1.5000    0.0000    0.0000 C   0  0  0  0  0  0  0  0  0  0  0  0
    0.7500   -1.2990    0.0000 C   0  0  0  0  0  0  0  0  0  0  0  0
   -0.7500   -1.2990    0.0000 C   0  0  0  0  0  0  0  0  0  0  0  0
   -1.5000    0.0000    0.0000 C   0  0  0  0  0  0  0  0  0  0  0  0
   -2.9672    0.3119    0.0000 C   0  0  0  0  0  0  0  0  0  0  0  0
   -4.0819   -0.6918    0.0000 C   0  0  0  0  0  0  0  0  0  0  0  0
   -3.7701   -2.1590    0.0000 O   0  0  0  0  0  0  0  0  0  0  0  0
   -5.5085   -0.2283    0.0000 C   0  0  0  0  0  0  0  0  0  0  0  0
   -5.8204    1.2389    0.0000 C   0  0  0  0  0  0  0  0  0  0  0  0
   -7.2470    1.7024    0.0000 C   0  0  0  0  0  0  0  0  0  0  0  0
   -7.5588    3.1697    0.0000 O   0  0  0  0  0  0  0  0  0  0  0  0
   -8.9854    3.6332    0.0000 C   0  0  0  0  0  0  0  0  0  0  0  0
   -8.3617    0.6987    0.0000 C   0  0  0  0  0  0  0  0  0  0  0  0
   -9.7883    1.1623    0.0000 O   0  0  0  0  0  0  0  0  0  0  0  0
  -10.9030    0.1586    0.0000 C   0  0  0  0  0  0  0  0  0  0  0  0
   -8.0498   -0.7685    0.0000 C   0  0  0  0  0  0  0  0  0  0  0  0
   -9.1645   -1.7722    0.0000 O   0  0  0  0  0  0  0  0  0  0  0  0
   -8.8527   -3.2394    0.0000 C   0  0  0  0  0  0  0  0  0  0  0  0
   -6.6232   -1.2320    0.0000 C   0  0  0  0  0  0  0  0  0  0  0  0
   -3.1240    1.8037    0.0000 C   0  0  0  0  0  0  0  0  0  0  0  0
   -1.7537    2.4138    0.0000 N   0  0  0  0  0  0  0  0  0  0  0  0
   -1.4418    3.8810    0.0000 C   0  0  0  0  0  0  0  0  0  0  0  0
   -2.5565    4.8847    0.0000 C   0  0  0  0  0  0  0  0  0  0  0  0
   -2.2447    6.3519    0.0000 C   0  0  0  0  0  0  0  0  0  0  0  0
   -3.3594    7.3556    0.0000 C   0  0  0  0  0  0  0  0  0  0  0  0
   -4.7860    6.8921    0.0000 C   0  0  0  0  0  0  0  0  0  0  0  0
   -5.9007    7.8958    0.0000 C   0  0  0  0  0  0  0  0  0  0  0  0
   -5.5888    9.3630    0.0000 C   0  0  0  0  0  0  0  0  0  0  0  0
   -6.7035   10.3667    0.0000 C   0  0  0  0  0  0  0  0  0  0  0  0
   -8.1301    9.9032    0.0000 O   0  0  0  0  0  0  0  0  0  0  0  0
   -6.3917   11.8339    0.0000 N   0  0  0  0  0  0  0  0  0  0  0  0
   -7.5064   12.8376    0.0000 O   0  0  0  0  0  0  0  0  0  0  0  0
   -5.0978    5.4248    0.0000 C   0  0  0  0  0  0  0  0  0  0  0  0
   -3.9831    4.4211    0.0000 C   0  0  0  0  0  0  0  0  0  0  0  0
   -0.7500    1.2990    0.0000 C   0  0  0  0  0  0  0  0  0  0  0  0
    0.7500    1.2990    0.0000 C   0  0  0  0  0  0  0  0  0  0  0  0
  1  2  1  0
  2  3  1  0
  3  4  2  0
  4  5  1  0
  5  6  2  0
  6  7  1  0
  7  8  1  0
  8  9  2  0
  8 10  1  0
 10 11  2  0
 11 12  1  0
 12 13  1  0
 13 14  1  0
 12 15  2  0
 15 16  1  0
 16 17  1  0
 15 18  1  0
 18 19  1  0
 19 20  1  0
 18 21  2  0
  7 22  2  0
 22 23  1  0
 23 24  1  0
 24 25  1  0
 25 26  2  0
 26 27  1  0
 27 28  2  0
 28 29  1  0
 29 30  2  3
 30 31  1  0
 31 32  2  0
 31 33  1  0
 33 34  1  0
 28 35  1  0
 35 36  2  0
 23 37  1  0
 37 38  2  0
 38  3  1  0
 37  6  1  0
 21 10  1  0
 36 25  1  0
M  END
>  <molecule_chembl_id>  (705) 
CHEMBL4070232

>  <canonical_smiles>  (705) 
COc1ccc2c(C(=O)c3cc(OC)c(OC)c(OC)c3)cn(Cc3ccc(C=CC(=O)NO)cc3)c2c1

>  <pchembl_value_mean>  (705) 
6.54

>  <document_chembl_id>  (705) 
CHEMBL4041521

$$$$

     RDKit          2D

 28 31  0  0  0  0  0  0  0  0999 V2000
   -0.8980   -7.8928    0.0000 C   0  0  0  0  0  0  0  0  0  0  0  0
    0.5692   -8.2047    0.0000 C   0  0  0  0  0  0  0  0  0  0  0  0
    1.1793   -9.5750    0.0000 N   0  0  0  0  0  0  0  0  0  0  0  0
    2.6711   -9.4182    0.0000 O   0  0  0  0  0  0  0  0  0  0  0  0
    2.9829   -7.9510    0.0000 C   0  0  0  0  0  0  0  0  0  0  0  0
    4.3533   -7.3409    0.0000 C   0  0  0  0  0  0  0  0  0  0  0  0
    1.6839   -7.2010    0.0000 C   0  0  0  0  0  0  0  0  0  0  0  0
    1.5271   -5.7092    0.0000 C   0  0  0  0  0  0  0  0  0  0  0  0
    0.1568   -5.0991    0.0000 N   0  0  0  0  0  0  0  0  0  0  0  0
   -0.0000   -3.6073    0.0000 C   0  0  0  0  0  0  0  0  0  0  0  0
   -1.2135   -2.7256    0.0000 S   0  0  0  0  0  0  0  0  0  0  0  0
   -0.7500   -1.2990    0.0000 C   0  0  0  0  0  0  0  0  0  0  0  0
    0.7500   -1.2990    0.0000 C   0  0  0  0  0  0  0  0  0  0  0  0
    1.2135   -2.7256    0.0000 C   0  0  0  0  0  0  0  0  0  0  0  0
    2.5838   -3.3357    0.0000 C   0  0  0  0  0  0  0  0  0  0  0  0
    3.7974   -2.4540    0.0000 O   0  0  0  0  0  0  0  0  0  0  0  0
    2.7406   -4.8275    0.0000 N   0  0  0  0  0  0  0  0  0  0  0  0
    1.5000    0.0000    0.0000 C   0  0  0  0  0  0  0  0  0  0  0  0
    0.7500    1.2990    0.0000 C   0  0  0  0  0  0  0  0  0  0  0  0
   -0.7500    1.2990    0.0000 N   0  0  0  0  0  0  0  0  0  0  0  0
   -1.5000    2.5981    0.0000 C   0  0  0  0  0  0  0  0  0  0  0  0
   -0.7500    3.8971    0.0000 C   0  0  0  0  0  0  0  0  0  0  0  0
   -1.5000    5.1962    0.0000 C   0  0  0  0  0  0  0  0  0  0  0  0
   -0.7500    6.4952    0.0000 C   0  0  0  0  0  0  0  0  0  0  0  0
    0.7500    6.4952    0.0000 O   0  0  0  0  0  0  0  0  0  0  0  0
   -1.5000    7.7942    0.0000 N   0  0  0  0  0  0  0  0  0  0  0  0
   -0.7500    9.0933    0.0000 O   0  0  0  0  0  0  0  0  0  0  0  0
   -1.5000    0.0000    0.0000 C   0  0  0  0  0  0  0  0  0  0  0  0
  1  2  1  0
  2  3  2  0
  3  4  1  0
  4  5  1  0
  5  6  1  0
  5  7  2  0
  7  8  1  0
  8  9  2  0
  9 10  1  0
 10 11  1  0
 11 12  1  0
 12 13  2  0
 13 14  1  0
 14 15  1  0
 15 16  2  0
 15 17  1  0
 13 18  1  0
 18 19  1  0
 19 20  1  0
 20 21  1  0
 21 22  1  0
 22 23  1  0
 23 24  1  0
 24 25  2  0
 24 26  1  0
 26 27  1  0
 20 28  1  0
  7  2  1  0
 17  8  1  0
 14 10  2  0
 28 12  1  0
M  END
>  <molecule_chembl_id>  (706) 
CHEMBL4436262

>  <canonical_smiles>  (706) 
Cc1noc(C)c1-c1nc2sc3c(c2c(=O)[nH]1)CCN(CCCC(=O)NO)C3

>  <pchembl_value_mean>  (706) 
6.55

>  <document_chembl_id>  (706) 
CHEMBL4342471

$$$$

     RDKit          2D

 39 42  0  0  0  0  0  0  0  0999 V2000
  -19.1354   -5.8170    0.0000 C   0  0  0  0  0  0  0  0  0  0  0  0
  -18.0207   -6.8207    0.0000 C   0  0  0  0  0  0  0  0  0  0  0  0
  -16.5941   -6.3572    0.0000 C   0  0  0  0  0  0  0  0  0  0  0  0
  -15.4794   -7.3609    0.0000 N   0  0  0  0  0  0  0  0  0  0  0  0
  -14.0528   -6.8974    0.0000 N   0  0  0  0  0  0  0  0  0  0  0  0
  -12.9381   -7.9010    0.0000 C   0  0  0  0  0  0  0  0  0  0  0  0
  -13.2499   -9.3683    0.0000 O   0  0  0  0  0  0  0  0  0  0  0  0
  -11.5115   -7.4375    0.0000 C   0  0  0  0  0  0  0  0  0  0  0  0
  -10.3968   -8.4412    0.0000 C   0  0  0  0  0  0  0  0  0  0  0  0
   -8.9702   -7.9777    0.0000 C   0  0  0  0  0  0  0  0  0  0  0  0
   -8.6583   -6.5105    0.0000 C   0  0  0  0  0  0  0  0  0  0  0  0
   -7.2317   -6.0469    0.0000 C   0  0  0  0  0  0  0  0  0  0  0  0
   -6.1170   -7.0506    0.0000 C   0  0  0  0  0  0  0  0  0  0  0  0
   -4.6904   -6.5871    0.0000 O   0  0  0  0  0  0  0  0  0  0  0  0
   -4.3786   -5.1199    0.0000 C   0  0  0  0  0  0  0  0  0  0  0  0
   -2.9520   -4.6564    0.0000 C   0  0  0  0  0  0  0  0  0  0  0  0
   -2.6401   -3.1891    0.0000 C   0  0  0  0  0  0  0  0  0  0  0  0
   -1.2135   -2.7256    0.0000 C   0  0  0  0  0  0  0  0  0  0  0  0
   -0.0000   -3.6073    0.0000 C   0  0  0  0  0  0  0  0  0  0  0  0
    1.2135   -2.7256    0.0000 N   0  0  0  0  0  0  0  0  0  0  0  0
    0.7500   -1.2990    0.0000 C   0  0  0  0  0  0  0  0  0  0  0  0
    1.5000    0.0000    0.0000 C   0  0  0  0  0  0  0  0  0  0  0  0
    0.7500    1.2990    0.0000 C   0  0  0  0  0  0  0  0  0  0  0  0
   -0.7500    1.2990    0.0000 C   0  0  0  0  0  0  0  0  0  0  0  0
   -1.5000    0.0000    0.0000 C   0  0  0  0  0  0  0  0  0  0  0  0
   -0.7500   -1.2990    0.0000 C   0  0  0  0  0  0  0  0  0  0  0  0
   -1.8373   -5.6601    0.0000 N   0  0  0  0  0  0  0  0  0  0  0  0
   -2.1491   -7.1273    0.0000 C   0  0  0  0  0  0  0  0  0  0  0  0
   -3.5757   -7.5908    0.0000 O   0  0  0  0  0  0  0  0  0  0  0  0
   -1.0344   -8.1310    0.0000 C   0  0  0  0  0  0  0  0  0  0  0  0
   -1.3463   -9.5982    0.0000 C   0  0  0  0  0  0  0  0  0  0  0  0
   -0.2316  -10.6019    0.0000 C   0  0  0  0  0  0  0  0  0  0  0  0
    1.1950  -10.1384    0.0000 C   0  0  0  0  0  0  0  0  0  0  0  0
    2.3097  -11.1421    0.0000 O   0  0  0  0  0  0  0  0  0  0  0  0
    1.9979  -12.6093    0.0000 C   0  0  0  0  0  0  0  0  0  0  0  0
    1.5069   -8.6712    0.0000 C   0  0  0  0  0  0  0  0  0  0  0  0
    0.3922   -7.6675    0.0000 C   0  0  0  0  0  0  0  0  0  0  0  0
   -6.4289   -8.5179    0.0000 C   0  0  0  0  0  0  0  0  0  0  0  0
   -7.8555   -8.9814    0.0000 C   0  0  0  0  0  0  0  0  0  0  0  0
  1  2  1  0
  2  3  1  0
  3  4  1  0
  4  5  1  0
  5  6  1  0
  6  7  2  0
  6  8  1  0
  8  9  2  3
  9 10  1  0
 10 11  2  0
 11 12  1  0
 12 13  2  0
 13 14  1  0
 14 15  1  0
 15 16  1  0
 16 17  1  0
 17 18  1  0
 18 19  2  0
 19 20  1  0
 20 21  1  0
 21 22  2  0
 22 23  1  0
 23 24  2  0
 24 25  1  0
 25 26  2  0
 16 27  1  0
 27 28  1  0
 28 29  2  0
 28 30  1  0
 30 31  2  0
 31 32  1  0
 32 33  2  0
 33 34  1  0
 34 35  1  0
 33 36  1  0
 36 37  2  0
 13 38  1  0
 38 39  2  0
 39 10  1  0
 26 18  1  0
 37 30  1  0
 26 21  1  0
M  END
>  <molecule_chembl_id>  (707) 
CHEMBL4069908

>  <canonical_smiles>  (707) 
CCCNNC(=O)C=Cc1ccc(OCC(Cc2c[nH]c3ccccc23)NC(=O)c2ccc(OC)cc2)cc1

>  <pchembl_value_mean>  (707) 
6.55

>  <document_chembl_id>  (707) 
CHEMBL4020839

$$$$

     RDKit          2D

 31 34  0  0  0  0  0  0  0  0999 V2000
    3.0000    0.0000    0.0000 N   0  0  0  0  0  0  0  0  0  0  0  0
    1.5000    0.0000    0.0000 C   0  0  0  0  0  0  0  0  0  0  0  0
    0.7500   -1.2990    0.0000 C   0  0  0  0  0  0  0  0  0  0  0  0
   -0.7500   -1.2990    0.0000 C   0  0  0  0  0  0  0  0  0  0  0  0
   -1.5000    0.0000    0.0000 C   0  0  0  0  0  0  0  0  0  0  0  0
   -0.7500    1.2990    0.0000 C   0  0  0  0  0  0  0  0  0  0  0  0
    0.7500    1.2990    0.0000 C   0  0  0  0  0  0  0  0  0  0  0  0
    1.5000    2.5981    0.0000 N   0  0  0  0  0  0  0  0  0  0  0  0
    0.7500    3.8971    0.0000 C   0  0  0  0  0  0  0  0  0  0  0  0
   -0.7500    3.8971    0.0000 O   0  0  0  0  0  0  0  0  0  0  0  0
    1.5000    5.1962    0.0000 C   0  0  0  0  0  0  0  0  0  0  0  0
    3.0000    5.1962    0.0000 C   0  0  0  0  0  0  0  0  0  0  0  0
    3.7500    6.4952    0.0000 C   0  0  0  0  0  0  0  0  0  0  0  0
    3.0000    7.7942    0.0000 C   0  0  0  0  0  0  0  0  0  0  0  0
    3.7500    9.0933    0.0000 C   0  0  0  0  0  0  0  0  0  0  0  0
    5.2500    9.0933    0.0000 N   0  0  0  0  0  0  0  0  0  0  0  0
    6.0000   10.3923    0.0000 C   0  0  0  0  0  0  0  0  0  0  0  0
    7.5000   10.3923    0.0000 C   0  0  0  0  0  0  0  0  0  0  0  0
    8.3817   11.6058    0.0000 N   0  0  0  0  0  0  0  0  0  0  0  0
    9.8083   11.1423    0.0000 C   0  0  0  0  0  0  0  0  0  0  0  0
   11.0218   12.0240    0.0000 C   0  0  0  0  0  0  0  0  0  0  0  0
   12.3921   11.4139    0.0000 C   0  0  0  0  0  0  0  0  0  0  0  0
   13.6056   12.2956    0.0000 C   0  0  0  0  0  0  0  0  0  0  0  0
   13.4488   13.7873    0.0000 C   0  0  0  0  0  0  0  0  0  0  0  0
   14.6624   14.6690    0.0000 F   0  0  0  0  0  0  0  0  0  0  0  0
   12.0785   14.3974    0.0000 C   0  0  0  0  0  0  0  0  0  0  0  0
   10.8650   13.5158    0.0000 C   0  0  0  0  0  0  0  0  0  0  0  0
    9.8083    9.6423    0.0000 N   0  0  0  0  0  0  0  0  0  0  0  0
    8.3817    9.1788    0.0000 O   0  0  0  0  0  0  0  0  0  0  0  0
    1.5000    7.7942    0.0000 C   0  0  0  0  0  0  0  0  0  0  0  0
    0.7500    6.4952    0.0000 C   0  0  0  0  0  0  0  0  0  0  0  0
  1  2  1  0
  2  3  2  0
  3  4  1  0
  4  5  2  0
  5  6  1  0
  6  7  2  0
  7  8  1  0
  8  9  1  0
  9 10  2  0
  9 11  1  0
 11 12  2  0
 12 13  1  0
 13 14  2  0
 14 15  1  0
 15 16  1  0
 16 17  1  0
 17 18  1  0
 18 19  2  0
 19 20  1  0
 20 21  1  0
 21 22  2  0
 22 23  1  0
 23 24  2  0
 24 25  1  0
 24 26  1  0
 26 27  2  0
 20 28  2  0
 28 29  1  0
 14 30  1  0
 30 31  2  0
  7  2  1  0
 31 11  1  0
 29 18  1  0
 27 21  1  0
M  END
>  <molecule_chembl_id>  (708) 
CHEMBL3421743

>  <canonical_smiles>  (708) 
Nc1ccccc1NC(=O)c1ccc(CNCc2nc(-c3ccc(F)cc3)no2)cc1

>  <pchembl_value_mean>  (708) 
6.55

>  <document_chembl_id>  (708) 
CHEMBL3421568

$$$$

     RDKit          2D

 27 28  0  0  0  0  0  0  0  0999 V2000
    0.7500   -9.0933    0.0000 C   0  0  0  0  0  0  0  0  0  0  0  0
    1.5000   -7.7942    0.0000 C   0  0  0  0  0  0  0  0  0  0  0  0
    0.7500   -6.4952    0.0000 C   0  0  0  0  0  0  0  0  0  0  0  0
    1.5000   -5.1962    0.0000 C   0  0  0  0  0  0  0  0  0  0  0  0
    0.7500   -3.8971    0.0000 N   0  0  0  0  0  0  0  0  0  0  0  0
    1.5000   -2.5981    0.0000 C   0  0  0  0  0  0  0  0  0  0  0  0
    0.7500   -1.2990    0.0000 C   0  0  0  0  0  0  0  0  0  0  0  0
    1.5000    0.0000    0.0000 C   0  0  0  0  0  0  0  0  0  0  0  0
    0.7500    1.2990    0.0000 C   0  0  0  0  0  0  0  0  0  0  0  0
   -0.7500    1.2990    0.0000 C   0  0  0  0  0  0  0  0  0  0  0  0
   -1.5000    2.5981    0.0000 C   0  0  0  0  0  0  0  0  0  0  0  0
   -3.0000    2.5981    0.0000 O   0  0  0  0  0  0  0  0  0  0  0  0
   -0.7500    3.8971    0.0000 N   0  0  0  0  0  0  0  0  0  0  0  0
   -1.5000    5.1962    0.0000 O   0  0  0  0  0  0  0  0  0  0  0  0
   -1.5000    0.0000    0.0000 C   0  0  0  0  0  0  0  0  0  0  0  0
   -0.7500   -1.2990    0.0000 C   0  0  0  0  0  0  0  0  0  0  0  0
   -0.7500   -3.8971    0.0000 C   0  0  0  0  0  0  0  0  0  0  0  0
   -1.5000   -2.5981    0.0000 O   0  0  0  0  0  0  0  0  0  0  0  0
   -1.5000   -5.1962    0.0000 N   0  0  0  0  0  0  0  0  0  0  0  0
   -3.0000   -5.1962    0.0000 C   0  0  0  0  0  0  0  0  0  0  0  0
   -3.7500   -3.8971    0.0000 C   0  0  0  0  0  0  0  0  0  0  0  0
   -5.2500   -3.8971    0.0000 C   0  0  0  0  0  0  0  0  0  0  0  0
   -6.0000   -5.1962    0.0000 C   0  0  0  0  0  0  0  0  0  0  0  0
   -7.5000   -5.1962    0.0000 C   0  0  0  0  0  0  0  0  0  0  0  0
   -8.2500   -3.8971    0.0000 N   0  0  0  0  0  0  0  0  0  0  0  0
   -5.2500   -6.4952    0.0000 C   0  0  0  0  0  0  0  0  0  0  0  0
   -3.7500   -6.4952    0.0000 C   0  0  0  0  0  0  0  0  0  0  0  0
  1  2  1  0
  2  3  1  0
  3  4  1  0
  4  5  1  0
  5  6  1  0
  6  7  1  0
  7  8  2  0
  8  9  1  0
  9 10  2  0
 10 11  1  0
 11 12  2  0
 11 13  1  0
 13 14  1  0
 10 15  1  0
 15 16  2  0
  5 17  1  0
 17 18  2  0
 17 19  1  0
 19 20  1  0
 20 21  2  0
 21 22  1  0
 22 23  2  0
 23 24  1  0
 24 25  1  0
 23 26  1  0
 26 27  2  0
 16  7  1  0
 27 20  1  0
M  END
>  <molecule_chembl_id>  (709) 
CHEMBL4759584

>  <canonical_smiles>  (709) 
CCCCN(Cc1ccc(C(=O)NO)cc1)C(=O)Nc1ccc(CN)cc1

>  <pchembl_value_mean>  (709) 
6.55

>  <document_chembl_id>  (709) 
CHEMBL4725372

$$$$

     RDKit          2D

 40 43  0  0  0  0  0  0  0  0999 V2000
    3.7500   -1.2990    0.0000 C   0  0  0  0  0  0  0  0  0  0  0  0
    3.0000    0.0000    0.0000 N   0  0  0  0  0  0  0  0  0  0  0  0
    3.7500    1.2990    0.0000 C   0  0  0  0  0  0  0  0  0  0  0  0
    1.5000    0.0000    0.0000 C   0  0  0  0  0  0  0  0  0  0  0  0
    0.7500   -1.2990    0.0000 C   0  0  0  0  0  0  0  0  0  0  0  0
   -0.7500   -1.2990    0.0000 C   0  0  0  0  0  0  0  0  0  0  0  0
   -1.5000    0.0000    0.0000 C   0  0  0  0  0  0  0  0  0  0  0  0
   -3.0000    0.0000    0.0000 C   0  0  0  0  0  0  0  0  0  0  0  0
   -3.7500   -1.2990    0.0000 O   0  0  0  0  0  0  0  0  0  0  0  0
   -3.7500    1.2990    0.0000 N   0  0  0  0  0  0  0  0  0  0  0  0
   -3.0000    2.5981    0.0000 C   0  0  0  0  0  0  0  0  0  0  0  0
   -3.7500    3.8971    0.0000 C   0  0  0  0  0  0  0  0  0  0  0  0
   -5.2500    3.8971    0.0000 O   0  0  0  0  0  0  0  0  0  0  0  0
   -3.0000    5.1962    0.0000 N   0  0  0  0  0  0  0  0  0  0  0  0
   -3.7500    6.4952    0.0000 C   0  0  0  0  0  0  0  0  0  0  0  0
   -3.0000    7.7942    0.0000 C   0  0  0  0  0  0  0  0  0  0  0  0
   -1.5000    7.7942    0.0000 C   0  0  0  0  0  0  0  0  0  0  0  0
   -0.7500    9.0933    0.0000 C   0  0  0  0  0  0  0  0  0  0  0  0
   -1.5000   10.3923    0.0000 C   0  0  0  0  0  0  0  0  0  0  0  0
   -3.0000   10.3923    0.0000 C   0  0  0  0  0  0  0  0  0  0  0  0
   -3.7500    9.0933    0.0000 C   0  0  0  0  0  0  0  0  0  0  0  0
   -5.2500    1.2990    0.0000 C   0  0  0  0  0  0  0  0  0  0  0  0
   -6.0000    0.0000    0.0000 C   0  0  0  0  0  0  0  0  0  0  0  0
   -7.5000   -0.0000    0.0000 C   0  0  0  0  0  0  0  0  0  0  0  0
   -8.2500   -1.2990    0.0000 C   0  0  0  0  0  0  0  0  0  0  0  0
   -7.5000   -2.5981    0.0000 C   0  0  0  0  0  0  0  0  0  0  0  0
   -8.2500   -3.8971    0.0000 C   0  0  0  0  0  0  0  0  0  0  0  0
   -7.5000   -5.1962    0.0000 O   0  0  0  0  0  0  0  0  0  0  0  0
   -9.7500   -3.8971    0.0000 N   0  0  0  0  0  0  0  0  0  0  0  0
  -10.5000   -5.1962    0.0000 C   0  0  0  0  0  0  0  0  0  0  0  0
  -12.0000   -5.1962    0.0000 C   0  0  0  0  0  0  0  0  0  0  0  0
  -12.7500   -6.4952    0.0000 C   0  0  0  0  0  0  0  0  0  0  0  0
  -12.0000   -7.7942    0.0000 C   0  0  0  0  0  0  0  0  0  0  0  0
  -10.5000   -7.7942    0.0000 C   0  0  0  0  0  0  0  0  0  0  0  0
   -9.7500   -6.4952    0.0000 C   0  0  0  0  0  0  0  0  0  0  0  0
   -8.2500   -6.4952    0.0000 N   0  0  0  0  0  0  0  0  0  0  0  0
   -6.0000   -2.5981    0.0000 C   0  0  0  0  0  0  0  0  0  0  0  0
   -5.2500   -1.2990    0.0000 C   0  0  0  0  0  0  0  0  0  0  0  0
   -0.7500    1.2990    0.0000 C   0  0  0  0  0  0  0  0  0  0  0  0
    0.7500    1.2990    0.0000 C   0  0  0  0  0  0  0  0  0  0  0  0
  1  2  1  0
  2  3  1  0
  2  4  1  0
  4  5  2  0
  5  6  1  0
  6  7  2  0
  7  8  1  0
  8  9  2  0
  8 10  1  0
 10 11  1  0
 11 12  1  0
 12 13  2  0
 12 14  1  0
 14 15  1  0
 15 16  1  0
 16 17  2  0
 17 18  1  0
 18 19  2  0
 19 20  1  0
 20 21  2  0
 10 22  1  0
 22 23  1  0
 23 24  2  0
 24 25  1  0
 25 26  2  0
 26 27  1  0
 27 28  2  0
 27 29  1  0
 29 30  1  0
 30 31  2  0
 31 32  1  0
 32 33  2  0
 33 34  1  0
 34 35  2  0
 35 36  1  0
 26 37  1  0
 37 38  2  0
  7 39  1  0
 39 40  2  0
 40  4  1  0
 21 16  1  0
 38 23  1  0
 35 30  1  0
M  END
>  <molecule_chembl_id>  (710) 
CHEMBL4474656

>  <canonical_smiles>  (710) 
CN(C)c1ccc(C(=O)N(CC(=O)NCc2ccccc2)Cc2ccc(C(=O)Nc3ccccc3N)cc2)cc1

>  <pchembl_value_mean>  (710) 
6.55

>  <document_chembl_id>  (710) 
CHEMBL4334526

$$$$

     RDKit          2D

 34 36  0  0  0  0  0  0  0  0999 V2000
  -16.5941   -6.3572    0.0000 C   0  0  0  0  0  0  0  0  0  0  0  0
  -15.4794   -7.3609    0.0000 C   0  0  0  0  0  0  0  0  0  0  0  0
  -14.0528   -6.8974    0.0000 C   0  0  0  0  0  0  0  0  0  0  0  0
  -12.9381   -7.9010    0.0000 N   0  0  0  0  0  0  0  0  0  0  0  0
  -11.5115   -7.4375    0.0000 N   0  0  0  0  0  0  0  0  0  0  0  0
  -10.3968   -8.4412    0.0000 C   0  0  0  0  0  0  0  0  0  0  0  0
  -10.7086   -9.9084    0.0000 O   0  0  0  0  0  0  0  0  0  0  0  0
   -8.9702   -7.9777    0.0000 C   0  0  0  0  0  0  0  0  0  0  0  0
   -8.6583   -6.5105    0.0000 C   0  0  0  0  0  0  0  0  0  0  0  0
   -7.2317   -6.0469    0.0000 C   0  0  0  0  0  0  0  0  0  0  0  0
   -6.1170   -7.0506    0.0000 C   0  0  0  0  0  0  0  0  0  0  0  0
   -4.6904   -6.5871    0.0000 C   0  0  0  0  0  0  0  0  0  0  0  0
   -4.3786   -5.1199    0.0000 N   0  0  0  0  0  0  0  0  0  0  0  0
   -2.9520   -4.6564    0.0000 C   0  0  0  0  0  0  0  0  0  0  0  0
   -2.6401   -3.1891    0.0000 C   0  0  0  0  0  0  0  0  0  0  0  0
   -1.2135   -2.7256    0.0000 C   0  0  0  0  0  0  0  0  0  0  0  0
   -0.0000   -3.6073    0.0000 C   0  0  0  0  0  0  0  0  0  0  0  0
    0.0000   -5.1073    0.0000 C   0  0  0  0  0  0  0  0  0  0  0  0
    1.2135   -2.7256    0.0000 N   0  0  0  0  0  0  0  0  0  0  0  0
    0.7500   -1.2990    0.0000 C   0  0  0  0  0  0  0  0  0  0  0  0
    1.5000    0.0000    0.0000 C   0  0  0  0  0  0  0  0  0  0  0  0
    0.7500    1.2990    0.0000 C   0  0  0  0  0  0  0  0  0  0  0  0
   -0.7500    1.2990    0.0000 C   0  0  0  0  0  0  0  0  0  0  0  0
   -1.5000    0.0000    0.0000 C   0  0  0  0  0  0  0  0  0  0  0  0
   -0.7500   -1.2990    0.0000 C   0  0  0  0  0  0  0  0  0  0  0  0
   -5.4933   -4.1162    0.0000 C   0  0  0  0  0  0  0  0  0  0  0  0
   -5.1814   -2.6490    0.0000 O   0  0  0  0  0  0  0  0  0  0  0  0
   -6.9199   -4.5797    0.0000 O   0  0  0  0  0  0  0  0  0  0  0  0
   -8.0346   -3.5760    0.0000 C   0  0  0  0  0  0  0  0  0  0  0  0
   -9.0383   -4.6907    0.0000 C   0  0  0  0  0  0  0  0  0  0  0  0
   -7.0309   -2.4613    0.0000 C   0  0  0  0  0  0  0  0  0  0  0  0
   -9.1493   -2.5723    0.0000 C   0  0  0  0  0  0  0  0  0  0  0  0
   -6.4289   -8.5179    0.0000 C   0  0  0  0  0  0  0  0  0  0  0  0
   -7.8555   -8.9814    0.0000 C   0  0  0  0  0  0  0  0  0  0  0  0
  1  2  1  0
  2  3  1  0
  3  4  1  0
  4  5  1  0
  5  6  1  0
  6  7  2  0
  6  8  1  0
  8  9  2  0
  9 10  1  0
 10 11  2  0
 11 12  1  0
 12 13  1  0
 13 14  1  0
 14 15  1  0
 15 16  1  0
 16 17  2  0
 17 18  1  0
 17 19  1  0
 19 20  1  0
 20 21  2  0
 21 22  1  0
 22 23  2  0
 23 24  1  0
 24 25  2  0
 13 26  1  0
 26 27  2  0
 26 28  1  0
 28 29  1  0
 29 30  1  0
 29 31  1  0
 29 32  1  0
 11 33  1  0
 33 34  2  0
 34  8  1  0
 25 16  1  0
 25 20  1  0
M  END
>  <molecule_chembl_id>  (711) 
CHEMBL4555545

>  <canonical_smiles>  (711) 
CCCNNC(=O)c1ccc(CN(CCc2c(C)[nH]c3ccccc23)C(=O)OC(C)(C)C)cc1

>  <pchembl_value_mean>  (711) 
6.55

>  <document_chembl_id>  (711) 
CHEMBL4342521

$$$$

     RDKit          2D

 47 53  0  0  0  0  0  0  0  0999 V2000
    3.0000   -2.5981    0.0000 C   0  0  0  0  0  0  0  0  0  0  0  0
    1.5000   -2.5981    0.0000 N   0  0  0  0  0  0  0  0  0  0  0  0
    0.7500   -1.2990    0.0000 C   0  0  0  0  0  0  0  0  0  0  0  0
    1.5000    0.0000    0.0000 C   0  0  0  0  0  0  0  0  0  0  0  0
    0.7500    1.2990    0.0000 C   0  0  0  0  0  0  0  0  0  0  0  0
   -0.7500    1.2990    0.0000 C   0  0  0  0  0  0  0  0  0  0  0  0
   -1.5000    2.5981    0.0000 N   0  0  0  0  0  0  0  0  0  0  0  0
   -0.7500    3.8971    0.0000 C   0  0  0  0  0  0  0  0  0  0  0  0
   -1.5000    5.1962    0.0000 C   0  0  0  0  0  0  0  0  0  0  0  0
   -0.7500    6.4952    0.0000 C   0  0  0  0  0  0  0  0  0  0  0  0
   -1.5000    7.7942    0.0000 C   0  0  0  0  0  0  0  0  0  0  0  0
   -3.0000    7.7942    0.0000 C   0  0  0  0  0  0  0  0  0  0  0  0
   -3.7500    9.0933    0.0000 C   0  0  0  0  0  0  0  0  0  0  0  0
   -5.2418    9.2501    0.0000 N   0  0  0  0  0  0  0  0  0  0  0  0
   -5.5537   10.7173    0.0000 O   0  0  0  0  0  0  0  0  0  0  0  0
   -4.2546   11.4673    0.0000 C   0  0  0  0  0  0  0  0  0  0  0  0
   -4.0978   12.9591    0.0000 C   0  0  0  0  0  0  0  0  0  0  0  0
   -2.7275   13.5692    0.0000 C   0  0  0  0  0  0  0  0  0  0  0  0
   -2.5707   15.0610    0.0000 C   0  0  0  0  0  0  0  0  0  0  0  0
   -1.2004   15.6711    0.0000 C   0  0  0  0  0  0  0  0  0  0  0  0
   -1.0436   17.1628    0.0000 C   0  0  0  0  0  0  0  0  0  0  0  0
    0.3267   17.7729    0.0000 C   0  0  0  0  0  0  0  0  0  0  0  0
    0.4835   19.2647    0.0000 C   0  0  0  0  0  0  0  0  0  0  0  0
   -0.7300   20.1464    0.0000 O   0  0  0  0  0  0  0  0  0  0  0  0
    1.8538   19.8748    0.0000 N   0  0  0  0  0  0  0  0  0  0  0  0
    2.0106   21.3666    0.0000 O   0  0  0  0  0  0  0  0  0  0  0  0
   -3.1399   10.4636    0.0000 N   0  0  0  0  0  0  0  0  0  0  0  0
   -3.7500    6.4952    0.0000 C   0  0  0  0  0  0  0  0  0  0  0  0
   -3.0000    5.1962    0.0000 C   0  0  0  0  0  0  0  0  0  0  0  0
   -1.5000    0.0000    0.0000 C   0  0  0  0  0  0  0  0  0  0  0  0
   -0.7500   -1.2990    0.0000 C   0  0  0  0  0  0  0  0  0  0  0  0
   -1.5000   -2.5981    0.0000 C   0  0  0  0  0  0  0  0  0  0  0  0
   -3.0000   -2.5981    0.0000 O   0  0  0  0  0  0  0  0  0  0  0  0
   -0.7500   -3.8971    0.0000 N   0  0  0  0  0  0  0  0  0  0  0  0
   -1.5000   -5.1962    0.0000 C   0  0  0  0  0  0  0  0  0  0  0  0
   -0.7500   -6.4952    0.0000 C   0  0  0  0  0  0  0  0  0  0  0  0
    0.7500   -6.4952    0.0000 C   0  0  0  0  0  0  0  0  0  0  0  0
    1.5000   -5.1962    0.0000 C   0  0  0  0  0  0  0  0  0  0  0  0
    2.9672   -5.5080    0.0000 N   0  0  0  0  0  0  0  0  0  0  0  0
    3.1240   -6.9998    0.0000 C   0  0  0  0  0  0  0  0  0  0  0  0
    4.3375   -7.8815    0.0000 C   0  0  0  0  0  0  0  0  0  0  0  0
    4.1807   -9.3733    0.0000 C   0  0  0  0  0  0  0  0  0  0  0  0
    2.8104   -9.9834    0.0000 C   0  0  0  0  0  0  0  0  0  0  0  0
    2.6536  -11.4752    0.0000 O   0  0  0  0  0  0  0  0  0  0  0  0
    1.5969   -9.1017    0.0000 C   0  0  0  0  0  0  0  0  0  0  0  0
    1.7537   -7.6099    0.0000 C   0  0  0  0  0  0  0  0  0  0  0  0
    0.7500   -3.8971    0.0000 C   0  0  0  0  0  0  0  0  0  0  0  0
  1  2  1  0
  2  3  1  0
  3  4  2  0
  4  5  1  0
  5  6  2  0
  6  7  1  0
  7  8  1  0
  8  9  1  0
  9 10  2  0
 10 11  1  0
 11 12  2  0
 12 13  1  0
 13 14  2  0
 14 15  1  0
 15 16  1  0
 16 17  1  0
 17 18  1  0
 18 19  1  0
 19 20  1  0
 20 21  1  0
 21 22  1  0
 22 23  1  0
 23 24  2  0
 23 25  1  0
 25 26  1  0
 16 27  2  0
 12 28  1  0
 28 29  2  0
  6 30  1  0
 30 31  2  0
 31 32  1  0
 32 33  2  0
 32 34  1  0
 34 35  1  0
 35 36  1  0
 36 37  1  0
 37 38  2  0
 38 39  1  0
 39 40  1  0
 40 41  2  0
 41 42  1  0
 42 43  2  0
 43 44  1  0
 43 45  1  0
 45 46  2  0
 38 47  1  0
 47  2  1  0
 31  3  1  0
 47 34  1  0
 29  9  1  0
 46 37  1  0
 27 13  1  0
 46 40  1  0
M  END
>  <molecule_chembl_id>  (712) 
CHEMBL3577694

>  <canonical_smiles>  (712) 
CN1c2ccc(NCc3ccc(-c4noc(CCCCCCC(=O)NO)n4)cc3)cc2C(=O)N2CCc3c([nH]c4ccc(O)cc34)C21

>  <pchembl_value_mean>  (712) 
6.56

>  <document_chembl_id>  (712) 
CHEMBL3576845

$$$$

     RDKit          2D

 37 40  0  0  0  0  0  0  0  0999 V2000
    3.0000    0.0000    0.0000 C   0  0  0  0  0  0  0  0  0  0  0  0
    1.5000    0.0000    0.0000 C   0  0  0  0  0  0  0  0  0  0  0  0
    0.7500   -1.2990    0.0000 C   0  0  0  0  0  0  0  0  0  0  0  0
   -0.7500   -1.2990    0.0000 C   0  0  0  0  0  0  0  0  0  0  0  0
   -1.5000    0.0000    0.0000 C   0  0  0  0  0  0  0  0  0  0  0  0
   -3.0000    0.0000    0.0000 C   0  0  0  0  0  0  0  0  0  0  0  0
   -3.7500    1.2990    0.0000 N   0  0  0  0  0  0  0  0  0  0  0  0
   -5.2418    1.4558    0.0000 C   0  0  0  0  0  0  0  0  0  0  0  0
   -6.2455    0.3411    0.0000 O   0  0  0  0  0  0  0  0  0  0  0  0
   -5.5537    2.9231    0.0000 N   0  0  0  0  0  0  0  0  0  0  0  0
   -6.9240    3.5332    0.0000 C   0  0  0  0  0  0  0  0  0  0  0  0
   -7.0808    5.0249    0.0000 C   0  0  0  0  0  0  0  0  0  0  0  0
   -8.4511    5.6350    0.0000 C   0  0  0  0  0  0  0  0  0  0  0  0
   -9.6646    4.7534    0.0000 C   0  0  0  0  0  0  0  0  0  0  0  0
  -11.0349    5.3635    0.0000 Cl  0  0  0  0  0  0  0  0  0  0  0  0
   -9.5078    3.2616    0.0000 C   0  0  0  0  0  0  0  0  0  0  0  0
   -8.1375    2.6515    0.0000 C   0  0  0  0  0  0  0  0  0  0  0  0
   -4.2546    3.6731    0.0000 C   0  0  0  0  0  0  0  0  0  0  0  0
   -4.0978    5.1648    0.0000 O   0  0  0  0  0  0  0  0  0  0  0  0
   -3.1399    2.6694    0.0000 C   0  0  0  0  0  0  0  0  0  0  0  0
   -1.6727    2.9812    0.0000 C   0  0  0  0  0  0  0  0  0  0  0  0
   -1.2091    4.4078    0.0000 C   0  0  0  0  0  0  0  0  0  0  0  0
    0.2581    4.7197    0.0000 C   0  0  0  0  0  0  0  0  0  0  0  0
    1.2618    3.6050    0.0000 O   0  0  0  0  0  0  0  0  0  0  0  0
    0.7216    6.1463    0.0000 N   0  0  0  0  0  0  0  0  0  0  0  0
    2.1888    6.4581    0.0000 C   0  0  0  0  0  0  0  0  0  0  0  0
    3.1925    5.3434    0.0000 C   0  0  0  0  0  0  0  0  0  0  0  0
    4.6597    5.6553    0.0000 C   0  0  0  0  0  0  0  0  0  0  0  0
    5.1233    7.0819    0.0000 C   0  0  0  0  0  0  0  0  0  0  0  0
    6.5905    7.3937    0.0000 C   0  0  0  0  0  0  0  0  0  0  0  0
    7.0540    8.8203    0.0000 O   0  0  0  0  0  0  0  0  0  0  0  0
    7.5942    6.2790    0.0000 N   0  0  0  0  0  0  0  0  0  0  0  0
    9.0614    6.5909    0.0000 O   0  0  0  0  0  0  0  0  0  0  0  0
    4.1196    8.1966    0.0000 C   0  0  0  0  0  0  0  0  0  0  0  0
    2.6523    7.8847    0.0000 C   0  0  0  0  0  0  0  0  0  0  0  0
   -0.7500    1.2990    0.0000 C   0  0  0  0  0  0  0  0  0  0  0  0
    0.7500    1.2990    0.0000 C   0  0  0  0  0  0  0  0  0  0  0  0
  1  2  1  0
  2  3  2  0
  3  4  1  0
  4  5  2  0
  5  6  1  0
  6  7  1  0
  7  8  1  0
  8  9  2  0
  8 10  1  0
 10 11  1  0
 11 12  2  0
 12 13  1  0
 13 14  2  0
 14 15  1  0
 14 16  1  0
 16 17  2  0
 10 18  1  0
 18 19  2  0
 18 20  1  0
 20 21  1  0
 21 22  1  0
 22 23  1  0
 23 24  2  0
 23 25  1  0
 25 26  1  0
 26 27  2  0
 27 28  1  0
 28 29  2  0
 29 30  1  0
 30 31  2  0
 30 32  1  0
 32 33  1  0
 29 34  1  0
 34 35  2  0
  5 36  1  0
 36 37  2  0
 37  2  1  0
 20  7  1  0
 35 26  1  0
 17 11  1  0
M  END
>  <molecule_chembl_id>  (713) 
CHEMBL4445862

>  <canonical_smiles>  (713) 
Cc1ccc(CN2C(=O)N(c3ccc(Cl)cc3)C(=O)C2CCC(=O)Nc2ccc(C(=O)NO)cc2)cc1

>  <pchembl_value_mean>  (713) 
6.56

>  <document_chembl_id>  (713) 
CHEMBL4304789

$$$$

     RDKit          2D

 47 51  0  0  0  0  0  0  0  0999 V2000
   -7.5000   -5.1962    0.0000 C   0  0  0  0  0  0  0  0  0  0  0  0
   -6.0000   -5.1962    0.0000 C   0  0  0  0  0  0  0  0  0  0  0  0
   -5.2500   -3.8971    0.0000 C   0  0  0  0  0  0  0  0  0  0  0  0
   -6.0000   -2.5981    0.0000 O   0  0  0  0  0  0  0  0  0  0  0  0
   -3.7500   -3.8971    0.0000 N   0  0  0  0  0  0  0  0  0  0  0  0
   -3.0000   -2.5981    0.0000 C   0  0  0  0  0  0  0  0  0  0  0  0
   -1.5000   -2.5981    0.0000 C   0  0  0  0  0  0  0  0  0  0  0  0
   -0.7500   -1.2990    0.0000 C   0  0  0  0  0  0  0  0  0  0  0  0
    0.7500   -1.2990    0.0000 C   0  0  0  0  0  0  0  0  0  0  0  0
    1.5000   -2.5981    0.0000 N   0  0  0  0  0  0  0  0  0  0  0  0
    3.0000   -2.5981    0.0000 C   0  0  0  0  0  0  0  0  0  0  0  0
    3.7500   -3.8971    0.0000 C   0  0  0  0  0  0  0  0  0  0  0  0
    5.2500   -3.8971    0.0000 C   0  0  0  0  0  0  0  0  0  0  0  0
    6.0000   -2.5981    0.0000 C   0  0  0  0  0  0  0  0  0  0  0  0
    7.5000   -2.5981    0.0000 O   0  0  0  0  0  0  0  0  0  0  0  0
    8.2500   -3.8971    0.0000 C   0  0  0  0  0  0  0  0  0  0  0  0
    9.7500   -3.8971    0.0000 C   0  0  0  0  0  0  0  0  0  0  0  0
   10.5000   -5.1962    0.0000 C   0  0  0  0  0  0  0  0  0  0  0  0
   12.0000   -5.1962    0.0000 C   0  0  0  0  0  0  0  0  0  0  0  0
   12.7500   -3.8971    0.0000 C   0  0  0  0  0  0  0  0  0  0  0  0
   12.0000   -2.5981    0.0000 C   0  0  0  0  0  0  0  0  0  0  0  0
   12.7500   -1.2990    0.0000 F   0  0  0  0  0  0  0  0  0  0  0  0
   10.5000   -2.5981    0.0000 C   0  0  0  0  0  0  0  0  0  0  0  0
    5.2500   -1.2990    0.0000 C   0  0  0  0  0  0  0  0  0  0  0  0
    6.0000   -0.0000    0.0000 Cl  0  0  0  0  0  0  0  0  0  0  0  0
    3.7500   -1.2990    0.0000 C   0  0  0  0  0  0  0  0  0  0  0  0
    1.5000    0.0000    0.0000 N   0  0  0  0  0  0  0  0  0  0  0  0
    0.7500    1.2990    0.0000 C   0  0  0  0  0  0  0  0  0  0  0  0
   -0.7500    1.2990    0.0000 N   0  0  0  0  0  0  0  0  0  0  0  0
   -1.5000    0.0000    0.0000 C   0  0  0  0  0  0  0  0  0  0  0  0
   -3.0000    0.0000    0.0000 C   0  0  0  0  0  0  0  0  0  0  0  0
   -3.7500   -1.2990    0.0000 C   0  0  0  0  0  0  0  0  0  0  0  0
   -5.2500   -1.2990    0.0000 O   0  0  0  0  0  0  0  0  0  0  0  0
   -6.0000    0.0000    0.0000 C   0  0  0  0  0  0  0  0  0  0  0  0
   -7.5000    0.0000    0.0000 C   0  0  0  0  0  0  0  0  0  0  0  0
   -8.3817   -1.2135    0.0000 C   0  0  0  0  0  0  0  0  0  0  0  0
   -9.8083   -0.7500    0.0000 N   0  0  0  0  0  0  0  0  0  0  0  0
  -11.0218   -1.6317    0.0000 C   0  0  0  0  0  0  0  0  0  0  0  0
  -12.3921   -1.0216    0.0000 C   0  0  0  0  0  0  0  0  0  0  0  0
  -13.6056   -1.9033    0.0000 C   0  0  0  0  0  0  0  0  0  0  0  0
  -14.9760   -1.2931    0.0000 C   0  0  0  0  0  0  0  0  0  0  0  0
  -16.1895   -2.1748    0.0000 C   0  0  0  0  0  0  0  0  0  0  0  0
  -16.0327   -3.6666    0.0000 O   0  0  0  0  0  0  0  0  0  0  0  0
  -17.5598   -1.5647    0.0000 N   0  0  0  0  0  0  0  0  0  0  0  0
  -18.7733   -2.4464    0.0000 O   0  0  0  0  0  0  0  0  0  0  0  0
   -9.8083    0.7500    0.0000 N   0  0  0  0  0  0  0  0  0  0  0  0
   -8.3817    1.2135    0.0000 N   0  0  0  0  0  0  0  0  0  0  0  0
  1  2  2  0
  2  3  1  0
  3  4  2  0
  3  5  1  0
  5  6  1  0
  6  7  2  0
  7  8  1  0
  8  9  2  0
  9 10  1  0
 10 11  1  0
 11 12  2  0
 12 13  1  0
 13 14  2  0
 14 15  1  0
 15 16  1  0
 16 17  1  0
 17 18  2  0
 18 19  1  0
 19 20  2  0
 20 21  1  0
 21 22  1  0
 21 23  2  0
 14 24  1  0
 24 25  1  0
 24 26  2  0
  9 27  1  0
 27 28  2  0
 28 29  1  0
 29 30  2  0
 30 31  1  0
 31 32  2  0
 32 33  1  0
 33 34  1  0
 34 35  1  0
 35 36  2  0
 36 37  1  0
 37 38  1  0
 38 39  1  0
 39 40  1  0
 40 41  1  0
 41 42  1  0
 42 43  2  0
 42 44  1  0
 44 45  1  0
 37 46  1  0
 46 47  2  0
 32  6  1  0
 47 35  1  0
 30  8  1  0
 26 11  1  0
 23 17  1  0
M  END
>  <molecule_chembl_id>  (714) 
CHEMBL4758761

>  <canonical_smiles>  (714) 
C=CC(=O)Nc1cc2c(Nc3ccc(OCc4cccc(F)c4)c(Cl)c3)ncnc2cc1OCc1cn(CCCCC(=O)NO)nn1

>  <pchembl_value_mean>  (714) 
6.56

>  <document_chembl_id>  (714) 
CHEMBL4732162

$$$$

     RDKit          2D

 26 28  0  0  0  0  0  0  0  0999 V2000
    3.7500    1.2990    0.0000 O   0  0  0  0  0  0  0  0  0  0  0  0
    3.0000    0.0000    0.0000 C   0  0  0  0  0  0  0  0  0  0  0  0
    3.7500   -1.2990    0.0000 N   0  0  0  0  0  0  0  0  0  0  0  0
    5.2500   -1.2990    0.0000 O   0  0  0  0  0  0  0  0  0  0  0  0
    1.5000    0.0000    0.0000 C   0  0  0  0  0  0  0  0  0  0  0  0
    0.7500   -1.2990    0.0000 C   0  0  0  0  0  0  0  0  0  0  0  0
   -0.7500   -1.2990    0.0000 N   0  0  0  0  0  0  0  0  0  0  0  0
   -1.5000    0.0000    0.0000 C   0  0  0  0  0  0  0  0  0  0  0  0
   -3.0000    0.0000    0.0000 N   0  0  0  0  0  0  0  0  0  0  0  0
   -3.7500    1.2990    0.0000 C   0  0  0  0  0  0  0  0  0  0  0  0
   -5.2500    1.2990    0.0000 C   0  0  0  0  0  0  0  0  0  0  0  0
   -6.0000    2.5981    0.0000 C   0  0  0  0  0  0  0  0  0  0  0  0
   -7.5000    2.5981    0.0000 C   0  0  0  0  0  0  0  0  0  0  0  0
   -8.2500    1.2990    0.0000 C   0  0  0  0  0  0  0  0  0  0  0  0
   -9.7500    1.2990    0.0000 F   0  0  0  0  0  0  0  0  0  0  0  0
   -7.5000    0.0000    0.0000 C   0  0  0  0  0  0  0  0  0  0  0  0
   -6.0000    0.0000    0.0000 C   0  0  0  0  0  0  0  0  0  0  0  0
   -3.0000    2.5981    0.0000 C   0  0  0  0  0  0  0  0  0  0  0  0
   -1.5000    2.5981    0.0000 C   0  0  0  0  0  0  0  0  0  0  0  0
   -0.7500    3.8971    0.0000 C   0  0  0  0  0  0  0  0  0  0  0  0
   -1.5000    5.1962    0.0000 C   0  0  0  0  0  0  0  0  0  0  0  0
   -0.7500    6.4952    0.0000 F   0  0  0  0  0  0  0  0  0  0  0  0
   -3.0000    5.1962    0.0000 C   0  0  0  0  0  0  0  0  0  0  0  0
   -3.7500    3.8971    0.0000 C   0  0  0  0  0  0  0  0  0  0  0  0
   -0.7500    1.2990    0.0000 N   0  0  0  0  0  0  0  0  0  0  0  0
    0.7500    1.2990    0.0000 C   0  0  0  0  0  0  0  0  0  0  0  0
  1  2  2  0
  2  3  1  0
  3  4  1  0
  2  5  1  0
  5  6  2  0
  6  7  1  0
  7  8  2  0
  8  9  1  0
  9 10  1  0
 10 11  1  0
 11 12  2  0
 12 13  1  0
 13 14  2  0
 14 15  1  0
 14 16  1  0
 16 17  2  0
 10 18  1  0
 18 19  2  0
 19 20  1  0
 20 21  2  0
 21 22  1  0
 21 23  1  0
 23 24  2  0
  8 25  1  0
 25 26  2  0
 26  5  1  0
 17 11  1  0
 24 18  1  0
M  END
>  <molecule_chembl_id>  (715) 
CHEMBL3655966

>  <canonical_smiles>  (715) 
O=C(NO)c1cnc(NC(c2ccc(F)cc2)c2ccc(F)cc2)nc1

>  <pchembl_value_mean>  (715) 
6.57

>  <document_chembl_id>  (715) 
CHEMBL3639071

$$$$

     RDKit          2D

 26 27  0  0  0  0  0  0  0  0999 V2000
    3.7500    1.2990    0.0000 O   0  0  0  0  0  0  0  0  0  0  0  0
    3.0000    0.0000    0.0000 C   0  0  0  0  0  0  0  0  0  0  0  0
    3.7500   -1.2990    0.0000 N   0  0  0  0  0  0  0  0  0  0  0  0
    5.2500   -1.2990    0.0000 O   0  0  0  0  0  0  0  0  0  0  0  0
    1.5000    0.0000    0.0000 C   0  0  0  0  0  0  0  0  0  0  0  0
    0.7500   -1.2990    0.0000 C   0  0  0  0  0  0  0  0  0  0  0  0
   -0.7500   -1.2990    0.0000 C   0  0  0  0  0  0  0  0  0  0  0  0
   -1.5000    0.0000    0.0000 C   0  0  0  0  0  0  0  0  0  0  0  0
   -3.0000    0.0000    0.0000 C   0  0  0  0  0  0  0  0  0  0  0  0
   -3.7500    1.2990    0.0000 N   0  0  0  0  0  0  0  0  0  0  0  0
   -5.2500    1.2990    0.0000 C   0  0  0  0  0  0  0  0  0  0  0  0
   -6.0000    2.5981    0.0000 C   0  0  0  0  0  0  0  0  0  0  0  0
   -7.5000    2.5981    0.0000 C   0  0  0  0  0  0  0  0  0  0  0  0
   -8.2500    3.8971    0.0000 C   0  0  0  0  0  0  0  0  0  0  0  0
   -9.7500    3.8971    0.0000 O   0  0  0  0  0  0  0  0  0  0  0  0
   -3.0000    2.5981    0.0000 C   0  0  0  0  0  0  0  0  0  0  0  0
   -1.5000    2.5981    0.0000 O   0  0  0  0  0  0  0  0  0  0  0  0
   -3.7500    3.8971    0.0000 N   0  0  0  0  0  0  0  0  0  0  0  0
   -3.0000    5.1962    0.0000 C   0  0  0  0  0  0  0  0  0  0  0  0
   -1.5000    5.1962    0.0000 C   0  0  0  0  0  0  0  0  0  0  0  0
   -0.7500    6.4952    0.0000 C   0  0  0  0  0  0  0  0  0  0  0  0
   -1.5000    7.7942    0.0000 C   0  0  0  0  0  0  0  0  0  0  0  0
   -3.0000    7.7942    0.0000 C   0  0  0  0  0  0  0  0  0  0  0  0
   -3.7500    6.4952    0.0000 C   0  0  0  0  0  0  0  0  0  0  0  0
   -0.7500    1.2990    0.0000 C   0  0  0  0  0  0  0  0  0  0  0  0
    0.7500    1.2990    0.0000 C   0  0  0  0  0  0  0  0  0  0  0  0
  1  2  2  0
  2  3  1  0
  3  4  1  0
  2  5  1  0
  5  6  2  0
  6  7  1  0
  7  8  2  0
  8  9  1  0
  9 10  1  0
 10 11  1  0
 11 12  1  0
 12 13  1  0
 13 14  1  0
 14 15  1  0
 10 16  1  0
 16 17  2  0
 16 18  1  0
 18 19  1  0
 19 20  2  0
 20 21  1  0
 21 22  2  0
 22 23  1  0
 23 24  2  0
  8 25  1  0
 25 26  2  0
 26  5  1  0
 24 19  1  0
M  END
>  <molecule_chembl_id>  (716) 
CHEMBL4177129

>  <canonical_smiles>  (716) 
O=C(NO)c1ccc(CN(CCCCO)C(=O)Nc2ccccc2)cc1

>  <pchembl_value_mean>  (716) 
6.57

>  <document_chembl_id>  (716) 
CHEMBL4725372

$$$$

     RDKit          2D

 48 53  0  0  0  0  0  0  0  0999 V2000
    7.4466    3.7867    0.0000 C   0  0  0  0  0  0  0  0  0  0  0  0
    6.1476    4.5367    0.0000 O   0  0  0  0  0  0  0  0  0  0  0  0
    4.8486    3.7867    0.0000 C   0  0  0  0  0  0  0  0  0  0  0  0
    3.5495    4.5367    0.0000 C   0  0  0  0  0  0  0  0  0  0  0  0
    2.2505    3.7867    0.0000 C   0  0  0  0  0  0  0  0  0  0  0  0
    2.2505    2.2867    0.0000 C   0  0  0  0  0  0  0  0  0  0  0  0
    3.5495    1.5367    0.0000 C   0  0  0  0  0  0  0  0  0  0  0  0
    3.5495    0.0367    0.0000 O   0  0  0  0  0  0  0  0  0  0  0  0
    4.8486   -0.7133    0.0000 C   0  0  0  0  0  0  0  0  0  0  0  0
    4.8486    2.2867    0.0000 C   0  0  0  0  0  0  0  0  0  0  0  0
    6.1476    1.5367    0.0000 O   0  0  0  0  0  0  0  0  0  0  0  0
    6.1476    0.0367    0.0000 C   0  0  0  0  0  0  0  0  0  0  0  0
    1.0777    1.3515    0.0000 C   0  0  0  0  0  0  0  0  0  0  0  0
    1.7286    0.0000    0.0000 C   0  0  0  0  0  0  0  0  0  0  0  0
    1.0777   -1.3515    0.0000 C   0  0  0  0  0  0  0  0  0  0  0  0
   -0.3846   -1.6852    0.0000 C   0  0  0  0  0  0  0  0  0  0  0  0
   -0.7184   -3.1476    0.0000 O   0  0  0  0  0  0  0  0  0  0  0  0
   -2.1518   -3.5898    0.0000 C   0  0  0  0  0  0  0  0  0  0  0  0
   -1.5574   -0.7500    0.0000 C   0  0  0  0  0  0  0  0  0  0  0  0
   -2.9088   -1.4008    0.0000 O   0  0  0  0  0  0  0  0  0  0  0  0
   -1.5574    0.7500    0.0000 C   0  0  0  0  0  0  0  0  0  0  0  0
   -0.3846    1.6852    0.0000 C   0  0  0  0  0  0  0  0  0  0  0  0
   -1.0355    3.0367    0.0000 C   0  0  0  0  0  0  0  0  0  0  0  0
   -2.5355    3.0367    0.0000 N   0  0  0  0  0  0  0  0  0  0  0  0
   -3.2855    4.3357    0.0000 C   0  0  0  0  0  0  0  0  0  0  0  0
   -4.7855    4.3357    0.0000 C   0  0  0  0  0  0  0  0  0  0  0  0
   -5.5355    5.6348    0.0000 C   0  0  0  0  0  0  0  0  0  0  0  0
   -7.0355    5.6348    0.0000 C   0  0  0  0  0  0  0  0  0  0  0  0
   -7.7855    4.3357    0.0000 C   0  0  0  0  0  0  0  0  0  0  0  0
   -9.2855    4.3357    0.0000 C   0  0  0  0  0  0  0  0  0  0  0  0
  -10.0355    3.0367    0.0000 O   0  0  0  0  0  0  0  0  0  0  0  0
  -10.0355    5.6348    0.0000 N   0  0  0  0  0  0  0  0  0  0  0  0
  -11.5355    5.6348    0.0000 C   0  0  0  0  0  0  0  0  0  0  0  0
  -12.2855    6.9338    0.0000 C   0  0  0  0  0  0  0  0  0  0  0  0
  -13.7855    6.9338    0.0000 C   0  0  0  0  0  0  0  0  0  0  0  0
  -14.5355    8.2328    0.0000 C   0  0  0  0  0  0  0  0  0  0  0  0
  -16.0273    8.3896    0.0000 C   0  0  0  0  0  0  0  0  0  0  0  0
  -16.3391    9.8569    0.0000 C   0  0  0  0  0  0  0  0  0  0  0  0
  -15.0401   10.6069    0.0000 C   0  0  0  0  0  0  0  0  0  0  0  0
  -13.9254    9.6032    0.0000 S   0  0  0  0  0  0  0  0  0  0  0  0
  -14.5355    5.6348    0.0000 C   0  0  0  0  0  0  0  0  0  0  0  0
  -13.7855    4.3357    0.0000 C   0  0  0  0  0  0  0  0  0  0  0  0
  -12.2855    4.3357    0.0000 C   0  0  0  0  0  0  0  0  0  0  0  0
  -11.5355    3.0367    0.0000 N   0  0  0  0  0  0  0  0  0  0  0  0
   -7.0355    3.0367    0.0000 C   0  0  0  0  0  0  0  0  0  0  0  0
   -5.5355    3.0367    0.0000 C   0  0  0  0  0  0  0  0  0  0  0  0
   -0.3846    4.3881    0.0000 C   0  0  0  0  0  0  0  0  0  0  0  0
    1.0777    4.7219    0.0000 C   0  0  0  0  0  0  0  0  0  0  0  0
  1  2  1  0
  2  3  1  0
  3  4  2  0
  4  5  1  0
  5  6  2  0
  6  7  1  0
  7  8  1  0
  8  9  1  0
  7 10  2  0
 10 11  1  0
 11 12  1  0
  6 13  1  0
 13 14  2  0
 14 15  1  0
 15 16  2  0
 16 17  1  0
 17 18  1  0
 16 19  1  0
 19 20  2  0
 19 21  1  0
 21 22  2  0
 22 23  1  0
 23 24  1  0
 24 25  1  0
 25 26  1  0
 26 27  2  0
 27 28  1  0
 28 29  2  0
 29 30  1  0
 30 31  2  0
 30 32  1  0
 32 33  1  0
 33 34  2  0
 34 35  1  0
 35 36  1  0
 36 37  2  0
 37 38  1  0
 38 39  2  0
 39 40  1  0
 35 41  2  0
 41 42  1  0
 42 43  2  0
 43 44  1  0
 29 45  1  0
 45 46  2  0
 23 47  1  0
 47 48  1  0
 10  3  1  0
 22 13  1  0
 46 26  1  0
 48  5  1  0
 43 33  1  0
 40 36  1  0
M  END
>  <molecule_chembl_id>  (717) 
CHEMBL3417214

>  <canonical_smiles>  (717) 
COc1cc2c(c(OC)c1OC)-c1ccc(OC)c(=O)cc1C(NCc1ccc(C(=O)Nc3cc(-c4cccs4)ccc3N)cc1)CC2

>  <pchembl_value_mean>  (717) 
6.57

>  <document_chembl_id>  (717) 
CHEMBL3414494

$$$$

     RDKit          2D

 26 29  0  0  0  0  0  0  0  0999 V2000
    3.7500   -3.8971    0.0000 N   0  0  0  0  0  0  0  0  0  0  0  0
    3.0000   -5.1962    0.0000 C   0  0  0  0  0  0  0  0  0  0  0  0
    3.7500   -6.4952    0.0000 C   0  0  0  0  0  0  0  0  0  0  0  0
    3.0000   -7.7942    0.0000 C   0  0  0  0  0  0  0  0  0  0  0  0
    1.5000   -7.7942    0.0000 C   0  0  0  0  0  0  0  0  0  0  0  0
    0.7500   -6.4952    0.0000 C   0  0  0  0  0  0  0  0  0  0  0  0
    1.5000   -5.1962    0.0000 C   0  0  0  0  0  0  0  0  0  0  0  0
    0.7500   -3.8971    0.0000 N   0  0  0  0  0  0  0  0  0  0  0  0
    1.5000   -2.5981    0.0000 C   0  0  0  0  0  0  0  0  0  0  0  0
    3.0000   -2.5981    0.0000 O   0  0  0  0  0  0  0  0  0  0  0  0
    0.7500   -1.2990    0.0000 C   0  0  0  0  0  0  0  0  0  0  0  0
    1.5000    0.0000    0.0000 C   0  0  0  0  0  0  0  0  0  0  0  0
    0.7500    1.2990    0.0000 C   0  0  0  0  0  0  0  0  0  0  0  0
    1.5000    2.5981    0.0000 C   0  0  0  0  0  0  0  0  0  0  0  0
    0.7500    3.8971    0.0000 C   0  0  0  0  0  0  0  0  0  0  0  0
   -0.7500    3.8971    0.0000 C   0  0  0  0  0  0  0  0  0  0  0  0
   -1.5000    5.1962    0.0000 N   0  0  0  0  0  0  0  0  0  0  0  0
   -0.7500    6.4952    0.0000 C   0  0  0  0  0  0  0  0  0  0  0  0
   -1.5000    7.7942    0.0000 C   0  0  0  0  0  0  0  0  0  0  0  0
   -3.0000    7.7942    0.0000 N   0  0  0  0  0  0  0  0  0  0  0  0
   -3.7500    6.4952    0.0000 C   0  0  0  0  0  0  0  0  0  0  0  0
   -3.0000    5.1962    0.0000 C   0  0  0  0  0  0  0  0  0  0  0  0
   -1.5000    2.5981    0.0000 C   0  0  0  0  0  0  0  0  0  0  0  0
   -0.7500    1.2990    0.0000 C   0  0  0  0  0  0  0  0  0  0  0  0
   -1.5000    0.0000    0.0000 C   0  0  0  0  0  0  0  0  0  0  0  0
   -0.7500   -1.2990    0.0000 N   0  0  0  0  0  0  0  0  0  0  0  0
  1  2  1  0
  2  3  2  0
  3  4  1  0
  4  5  2  0
  5  6  1  0
  6  7  2  0
  7  8  1  0
  8  9  1  0
  9 10  2  0
  9 11  1  0
 11 12  2  0
 12 13  1  0
 13 14  2  0
 14 15  1  0
 15 16  2  0
 16 17  1  0
 17 18  1  0
 18 19  1  0
 19 20  1  0
 20 21  1  0
 21 22  1  0
 16 23  1  0
 23 24  2  0
 24 25  1  0
 25 26  2  0
  7  2  1  0
 26 11  1  0
 24 13  1  0
 22 17  1  0
M  END
>  <molecule_chembl_id>  (718) 
CHEMBL3664031

>  <canonical_smiles>  (718) 
Nc1ccccc1NC(=O)c1cc2ccc(N3CCNCC3)cc2cn1

>  <pchembl_value_mean>  (718) 
6.57

>  <document_chembl_id>  (718) 
CHEMBL3639382

$$$$

     RDKit          2D

 26 27  0  0  0  0  0  0  0  0999 V2000
   12.7500   -3.8971    0.0000 O   0  0  0  0  0  0  0  0  0  0  0  0
   12.0000   -5.1962    0.0000 C   0  0  0  0  0  0  0  0  0  0  0  0
   10.5000   -5.1962    0.0000 C   0  0  0  0  0  0  0  0  0  0  0  0
    9.7500   -3.8971    0.0000 C   0  0  0  0  0  0  0  0  0  0  0  0
    8.2500   -3.8971    0.0000 C   0  0  0  0  0  0  0  0  0  0  0  0
    7.5000   -2.5981    0.0000 C   0  0  0  0  0  0  0  0  0  0  0  0
    6.0000   -2.5981    0.0000 C   0  0  0  0  0  0  0  0  0  0  0  0
    5.2500   -1.2990    0.0000 C   0  0  0  0  0  0  0  0  0  0  0  0
    3.7500   -1.2990    0.0000 C   0  0  0  0  0  0  0  0  0  0  0  0
    3.0000   -2.5981    0.0000 O   0  0  0  0  0  0  0  0  0  0  0  0
    3.0000    0.0000    0.0000 N   0  0  0  0  0  0  0  0  0  0  0  0
    1.5000    0.0000    0.0000 C   0  0  0  0  0  0  0  0  0  0  0  0
    0.7500   -1.2990    0.0000 C   0  0  0  0  0  0  0  0  0  0  0  0
   -0.7500   -1.2990    0.0000 C   0  0  0  0  0  0  0  0  0  0  0  0
   -1.5000    0.0000    0.0000 C   0  0  0  0  0  0  0  0  0  0  0  0
   -0.7500    1.2990    0.0000 C   0  0  0  0  0  0  0  0  0  0  0  0
    0.7500    1.2990    0.0000 C   0  0  0  0  0  0  0  0  0  0  0  0
    1.5000    2.5981    0.0000 C   0  0  0  0  0  0  0  0  0  0  0  0
    3.0000    2.5981    0.0000 N   0  0  0  0  0  0  0  0  0  0  0  0
    3.8817    3.8116    0.0000 C   0  0  0  0  0  0  0  0  0  0  0  0
    5.3083    3.3481    0.0000 C   0  0  0  0  0  0  0  0  0  0  0  0
    5.3083    1.8481    0.0000 C   0  0  0  0  0  0  0  0  0  0  0  0
    6.5218    0.9664    0.0000 O   0  0  0  0  0  0  0  0  0  0  0  0
    3.8817    1.3846    0.0000 C   0  0  0  0  0  0  0  0  0  0  0  0
   12.7500   -6.4952    0.0000 N   0  0  0  0  0  0  0  0  0  0  0  0
   14.2500   -6.4952    0.0000 O   0  0  0  0  0  0  0  0  0  0  0  0
  1  2  2  0
  2  3  1  0
  3  4  1  0
  4  5  1  0
  5  6  1  0
  6  7  1  0
  7  8  1  0
  8  9  1  0
  9 10  2  0
  9 11  1  0
 11 12  1  0
 12 13  2  0
 13 14  1  0
 14 15  2  0
 15 16  1  0
 16 17  2  0
 17 18  1  0
 18 19  1  0
 19 20  1  0
 20 21  1  0
 21 22  1  0
 22 23  1  0
 22 24  1  0
  2 25  1  0
 25 26  1  0
 17 12  1  0
 24 19  1  0
M  END
>  <molecule_chembl_id>  (719) 
CHEMBL4086093

>  <canonical_smiles>  (719) 
O=C(CCCCCCC(=O)Nc1ccccc1CN1CCC(O)C1)NO

>  <pchembl_value_mean>  (719) 
6.57

>  <document_chembl_id>  (719) 
CHEMBL4049428

$$$$

     RDKit          2D

 29 32  0  0  0  0  0  0  0  0999 V2000
    4.5000  -10.3923    0.0000 O   0  0  0  0  0  0  0  0  0  0  0  0
    3.0000  -10.3923    0.0000 C   0  0  0  0  0  0  0  0  0  0  0  0
    2.2500   -9.0933    0.0000 C   0  0  0  0  0  0  0  0  0  0  0  0
    3.0000   -7.7942    0.0000 C   0  0  0  0  0  0  0  0  0  0  0  0
    2.2500   -6.4952    0.0000 C   0  0  0  0  0  0  0  0  0  0  0  0
    0.7500   -6.4952    0.0000 C   0  0  0  0  0  0  0  0  0  0  0  0
   -0.0000   -5.1962    0.0000 C   0  0  0  0  0  0  0  0  0  0  0  0
    0.7500   -3.8971    0.0000 C   0  0  0  0  0  0  0  0  0  0  0  0
    2.2500   -3.8971    0.0000 C   0  0  0  0  0  0  0  0  0  0  0  0
    3.0000   -5.1962    0.0000 C   0  0  0  0  0  0  0  0  0  0  0  0
    3.0000   -2.5981    0.0000 C   0  0  0  0  0  0  0  0  0  0  0  0
    4.5000   -2.5981    0.0000 O   0  0  0  0  0  0  0  0  0  0  0  0
    2.2500   -1.2990    0.0000 C   0  0  0  0  0  0  0  0  0  0  0  0
    0.7500   -1.2990    0.0000 C   0  0  0  0  0  0  0  0  0  0  0  0
    1.5000    0.0000    0.0000 C   0  0  0  0  0  0  0  0  0  0  0  0
    0.7500    1.2990    0.0000 C   0  0  0  0  0  0  0  0  0  0  0  0
   -0.7500    1.2990    0.0000 N   0  0  0  0  0  0  0  0  0  0  0  0
   -1.5000    2.5981    0.0000 C   0  0  0  0  0  0  0  0  0  0  0  0
   -0.7500    3.8971    0.0000 C   0  0  0  0  0  0  0  0  0  0  0  0
    0.7500    3.8971    0.0000 C   0  0  0  0  0  0  0  0  0  0  0  0
    1.5000    5.1962    0.0000 C   0  0  0  0  0  0  0  0  0  0  0  0
    0.7500    6.4952    0.0000 C   0  0  0  0  0  0  0  0  0  0  0  0
   -0.7500    6.4952    0.0000 C   0  0  0  0  0  0  0  0  0  0  0  0
   -1.5000    5.1962    0.0000 C   0  0  0  0  0  0  0  0  0  0  0  0
   -1.5000    0.0000    0.0000 C   0  0  0  0  0  0  0  0  0  0  0  0
   -0.7500   -1.2990    0.0000 C   0  0  0  0  0  0  0  0  0  0  0  0
   -0.0000   -2.5981    0.0000 O   0  0  0  0  0  0  0  0  0  0  0  0
    2.2500  -11.6913    0.0000 N   0  0  0  0  0  0  0  0  0  0  0  0
    3.0000  -12.9904    0.0000 O   0  0  0  0  0  0  0  0  0  0  0  0
  1  2  2  0
  2  3  1  0
  3  4  2  3
  4  5  1  0
  5  6  2  0
  6  7  1  0
  7  8  2  0
  8  9  1  0
  9 10  2  0
  9 11  1  0
 11 12  2  0
 11 13  1  0
 13 14  1  0
 14 15  1  0
 15 16  1  0
 16 17  1  0
 17 18  1  0
 18 19  1  0
 19 20  2  0
 20 21  1  0
 21 22  2  0
 22 23  1  0
 23 24  2  0
 17 25  1  0
 25 26  1  0
 14 27  1  0
  2 28  1  0
 28 29  1  0
 10  5  1  0
 26 14  1  0
 27  8  1  0
 24 19  1  0
M  END
>  <molecule_chembl_id>  (720) 
CHEMBL1938433

>  <canonical_smiles>  (720) 
O=C(C=Cc1ccc2c(c1)C(=O)CC1(CCN(Cc3ccccc3)CC1)O2)NO

>  <pchembl_value_mean>  (720) 
6.57

>  <document_chembl_id>  (720) 
CHEMBL2390828

$$$$

     RDKit          2D

 36 39  0  0  0  0  0  0  0  0999 V2000
  -12.7500  -11.6913    0.0000 O   0  0  0  0  0  0  0  0  0  0  0  0
  -12.0000  -10.3923    0.0000 C   0  0  0  0  0  0  0  0  0  0  0  0
  -10.5000  -10.3923    0.0000 N   0  0  0  0  0  0  0  0  0  0  0  0
   -9.7500  -11.6913    0.0000 O   0  0  0  0  0  0  0  0  0  0  0  0
   -9.7500   -9.0933    0.0000 C   0  0  0  0  0  0  0  0  0  0  0  0
   -8.2500   -9.0933    0.0000 C   0  0  0  0  0  0  0  0  0  0  0  0
   -7.5000   -7.7942    0.0000 C   0  0  0  0  0  0  0  0  0  0  0  0
   -6.0000   -7.7942    0.0000 C   0  0  0  0  0  0  0  0  0  0  0  0
   -5.2500   -6.4952    0.0000 C   0  0  0  0  0  0  0  0  0  0  0  0
   -3.7500   -6.4952    0.0000 C   0  0  0  0  0  0  0  0  0  0  0  0
   -3.0000   -5.1962    0.0000 C   0  0  0  0  0  0  0  0  0  0  0  0
   -3.7500   -3.8971    0.0000 O   0  0  0  0  0  0  0  0  0  0  0  0
   -1.5000   -5.1962    0.0000 N   0  0  0  0  0  0  0  0  0  0  0  0
   -0.7500   -3.8971    0.0000 C   0  0  0  0  0  0  0  0  0  0  0  0
    0.7500   -3.8971    0.0000 C   0  0  0  0  0  0  0  0  0  0  0  0
    1.5000   -2.5981    0.0000 C   0  0  0  0  0  0  0  0  0  0  0  0
    0.7500   -1.2990    0.0000 C   0  0  0  0  0  0  0  0  0  0  0  0
    1.5000    0.0000    0.0000 N   0  0  0  0  0  0  0  0  0  0  0  0
    0.7500    1.2990    0.0000 C   0  0  0  0  0  0  0  0  0  0  0  0
   -0.7500    1.2990    0.0000 C   0  0  0  0  0  0  0  0  0  0  0  0
   -1.5000    0.0000    0.0000 C   0  0  0  0  0  0  0  0  0  0  0  0
   -0.7500   -1.2990    0.0000 C   0  0  0  0  0  0  0  0  0  0  0  0
   -1.5000   -2.5981    0.0000 C   0  0  0  0  0  0  0  0  0  0  0  0
   -3.0000   -7.7942    0.0000 C   0  0  0  0  0  0  0  0  0  0  0  0
   -1.5000   -7.7942    0.0000 O   0  0  0  0  0  0  0  0  0  0  0  0
   -3.7500   -9.0933    0.0000 N   0  0  0  0  0  0  0  0  0  0  0  0
   -3.0000  -10.3923    0.0000 C   0  0  0  0  0  0  0  0  0  0  0  0
   -1.5000  -10.3923    0.0000 C   0  0  0  0  0  0  0  0  0  0  0  0
   -0.7500  -11.6913    0.0000 C   0  0  0  0  0  0  0  0  0  0  0  0
   -1.5000  -12.9904    0.0000 C   0  0  0  0  0  0  0  0  0  0  0  0
   -0.7500  -14.2894    0.0000 N   0  0  0  0  0  0  0  0  0  0  0  0
   -1.5000  -15.5885    0.0000 C   0  0  0  0  0  0  0  0  0  0  0  0
   -3.0000  -15.5885    0.0000 C   0  0  0  0  0  0  0  0  0  0  0  0
   -3.7500  -14.2894    0.0000 C   0  0  0  0  0  0  0  0  0  0  0  0
   -3.0000  -12.9904    0.0000 C   0  0  0  0  0  0  0  0  0  0  0  0
   -3.7500  -11.6913    0.0000 C   0  0  0  0  0  0  0  0  0  0  0  0
  1  2  2  0
  2  3  1  0
  3  4  1  0
  3  5  1  0
  5  6  1  0
  6  7  1  0
  7  8  1  0
  8  9  1  0
  9 10  1  0
 10 11  1  0
 11 12  2  0
 11 13  1  0
 13 14  1  0
 14 15  2  0
 15 16  1  0
 16 17  2  0
 17 18  1  0
 18 19  2  0
 19 20  1  0
 20 21  2  0
 21 22  1  0
 22 23  2  0
 10 24  1  0
 24 25  2  0
 24 26  1  0
 26 27  1  0
 27 28  2  0
 28 29  1  0
 29 30  2  0
 30 31  1  0
 31 32  2  0
 32 33  1  0
 33 34  2  0
 34 35  1  0
 35 36  2  0
 23 14  1  0
 36 27  1  0
 22 17  1  0
 35 30  1  0
M  END
>  <molecule_chembl_id>  (721) 
CHEMBL336935

>  <canonical_smiles>  (721) 
O=CN(O)CCCCCC(C(=O)Nc1ccc2ncccc2c1)C(=O)Nc1ccc2ncccc2c1

>  <pchembl_value_mean>  (721) 
6.57

>  <document_chembl_id>  (721) 
CHEMBL1137945

$$$$

     RDKit          2D

 33 35  0  0  0  0  0  0  0  0999 V2000
    3.7500   -1.2990    0.0000 C   0  0  0  0  0  0  0  0  0  0  0  0
    3.0000    0.0000    0.0000 O   0  0  0  0  0  0  0  0  0  0  0  0
    1.5000    0.0000    0.0000 C   0  0  0  0  0  0  0  0  0  0  0  0
    0.7500   -1.2990    0.0000 C   0  0  0  0  0  0  0  0  0  0  0  0
   -0.7500   -1.2990    0.0000 C   0  0  0  0  0  0  0  0  0  0  0  0
   -1.5000    0.0000    0.0000 C   0  0  0  0  0  0  0  0  0  0  0  0
   -0.7500    1.2990    0.0000 C   0  0  0  0  0  0  0  0  0  0  0  0
   -1.5000    2.5981    0.0000 N   0  0  0  0  0  0  0  0  0  0  0  0
   -2.9918    2.7549    0.0000 N   0  0  0  0  0  0  0  0  0  0  0  0
   -3.3037    4.2221    0.0000 C   0  0  0  0  0  0  0  0  0  0  0  0
   -4.6740    4.8322    0.0000 C   0  0  0  0  0  0  0  0  0  0  0  0
   -5.8875    3.9505    0.0000 O   0  0  0  0  0  0  0  0  0  0  0  0
   -4.8308    6.3240    0.0000 N   0  0  0  0  0  0  0  0  0  0  0  0
   -6.2011    6.9341    0.0000 C   0  0  0  0  0  0  0  0  0  0  0  0
   -6.3579    8.4259    0.0000 C   0  0  0  0  0  0  0  0  0  0  0  0
   -5.1443    9.3075    0.0000 O   0  0  0  0  0  0  0  0  0  0  0  0
   -7.7282    9.0360    0.0000 N   0  0  0  0  0  0  0  0  0  0  0  0
   -7.8850   10.5278    0.0000 O   0  0  0  0  0  0  0  0  0  0  0  0
   -2.0046    4.9721    0.0000 N   0  0  0  0  0  0  0  0  0  0  0  0
   -0.8899    3.9684    0.0000 C   0  0  0  0  0  0  0  0  0  0  0  0
    0.5773    4.2803    0.0000 C   0  0  0  0  0  0  0  0  0  0  0  0
    1.5810    3.1655    0.0000 C   0  0  0  0  0  0  0  0  0  0  0  0
    3.0482    3.4774    0.0000 C   0  0  0  0  0  0  0  0  0  0  0  0
    4.0519    2.3627    0.0000 O   0  0  0  0  0  0  0  0  0  0  0  0
    5.5192    2.6746    0.0000 C   0  0  0  0  0  0  0  0  0  0  0  0
    3.5118    4.9040    0.0000 C   0  0  0  0  0  0  0  0  0  0  0  0
    4.9790    5.2159    0.0000 O   0  0  0  0  0  0  0  0  0  0  0  0
    5.4425    6.6424    0.0000 C   0  0  0  0  0  0  0  0  0  0  0  0
    2.5081    6.0187    0.0000 C   0  0  0  0  0  0  0  0  0  0  0  0
    2.9716    7.4453    0.0000 O   0  0  0  0  0  0  0  0  0  0  0  0
    1.9679    8.5600    0.0000 C   0  0  0  0  0  0  0  0  0  0  0  0
    1.0409    5.7068    0.0000 C   0  0  0  0  0  0  0  0  0  0  0  0
    0.7500    1.2990    0.0000 C   0  0  0  0  0  0  0  0  0  0  0  0
  1  2  1  0
  2  3  1  0
  3  4  2  0
  4  5  1  0
  5  6  2  0
  6  7  1  0
  7  8  1  0
  8  9  1  0
  9 10  2  0
 10 11  1  0
 11 12  2  0
 11 13  1  0
 13 14  1  0
 14 15  1  0
 15 16  2  0
 15 17  1  0
 17 18  1  0
 10 19  1  0
 19 20  2  0
 20 21  1  0
 21 22  2  0
 22 23  1  0
 23 24  1  0
 24 25  1  0
 23 26  2  0
 26 27  1  0
 27 28  1  0
 26 29  1  0
 29 30  1  0
 30 31  1  0
 29 32  2  0
  7 33  2  0
 33  3  1  0
 20  8  1  0
 32 21  1  0
M  END
>  <molecule_chembl_id>  (722) 
CHEMBL4174925

>  <canonical_smiles>  (722) 
COc1cccc(-n2nc(C(=O)NCC(=O)NO)nc2-c2cc(OC)c(OC)c(OC)c2)c1

>  <pchembl_value_mean>  (722) 
6.58

>  <document_chembl_id>  (722) 
CHEMBL4145499

$$$$

     RDKit          2D

 42 47  0  0  0  0  0  0  0  0999 V2000
    6.5018  -12.0631    0.0000 C   0  0  0  0  0  0  0  0  0  0  0  0
    5.0060  -11.9510    0.0000 C   0  0  0  0  0  0  0  0  0  0  0  0
    4.3552  -10.5995    0.0000 C   0  0  0  0  0  0  0  0  0  0  0  0
    5.2002   -9.3602    0.0000 O   0  0  0  0  0  0  0  0  0  0  0  0
    2.8594  -10.4874    0.0000 C   0  0  0  0  0  0  0  0  0  0  0  0
    2.2086   -9.1360    0.0000 C   0  0  0  0  0  0  0  0  0  0  0  0
    0.7128   -9.0239    0.0000 C   0  0  0  0  0  0  0  0  0  0  0  0
    0.0619   -7.6724    0.0000 C   0  0  0  0  0  0  0  0  0  0  0  0
   -1.4339   -7.5603    0.0000 C   0  0  0  0  0  0  0  0  0  0  0  0
   -2.0847   -6.2089    0.0000 C   0  0  0  0  0  0  0  0  0  0  0  0
   -0.8453   -5.3639    0.0000 N   0  0  0  0  0  0  0  0  0  0  0  0
    0.0899   -4.1912    0.0000 C   0  0  0  0  0  0  0  0  0  0  0  0
    1.3889   -4.9412    0.0000 O   0  0  0  0  0  0  0  0  0  0  0  0
    0.6379   -2.7948    0.0000 C   0  0  0  0  0  0  0  0  0  0  0  0
    1.9894   -2.1440    0.0000 C   0  0  0  0  0  0  0  0  0  0  0  0
    0.7500   -1.2990    0.0000 C   0  0  0  0  0  0  0  0  0  0  0  0
    1.5000    0.0000    0.0000 C   0  0  0  0  0  0  0  0  0  0  0  0
    0.7500    1.2990    0.0000 C   0  0  0  0  0  0  0  0  0  0  0  0
   -0.7500    1.2990    0.0000 N   0  0  0  0  0  0  0  0  0  0  0  0
   -2.7848    3.1335    0.0000 C   0  0  0  0  0  0  0  0  0  0  0  0
   -4.2681    3.3570    0.0000 C   0  0  0  0  0  0  0  0  0  0  0  0
   -5.7513    3.1335    0.0000 C   0  0  0  0  0  0  0  0  0  0  0  0
   -7.1028    2.4827    0.0000 C   0  0  0  0  0  0  0  0  0  0  0  0
   -8.2023    1.4624    0.0000 C   0  0  0  0  0  0  0  0  0  0  0  0
   -8.9523    0.1634    0.0000 N   0  0  0  0  0  0  0  0  0  0  0  0
  -10.4757   -0.0919    0.0000 C   0  0  0  0  0  0  0  0  0  0  0  0
  -11.1265    1.2595    0.0000 O   0  0  0  0  0  0  0  0  0  0  0  0
  -11.3207   -1.3313    0.0000 C   0  0  0  0  0  0  0  0  0  0  0  0
  -10.6698   -2.6827    0.0000 C   0  0  0  0  0  0  0  0  0  0  0  0
   -9.1740   -2.7948    0.0000 C   0  0  0  0  0  0  0  0  0  0  0  0
   -8.6260   -4.1912    0.0000 C   0  0  0  0  0  0  0  0  0  0  0  0
   -7.6908   -5.3639    0.0000 C   0  0  0  0  0  0  0  0  0  0  0  0
   -7.8029   -3.8681    0.0000 C   0  0  0  0  0  0  0  0  0  0  0  0
   -8.3509   -2.4718    0.0000 C   0  0  0  0  0  0  0  0  0  0  0  0
   -9.2861   -1.2990    0.0000 C   0  0  0  0  0  0  0  0  0  0  0  0
   -6.4514   -6.2089    0.0000 C   0  0  0  0  0  0  0  0  0  0  0  0
   -6.2057   -7.6886    0.0000 C   0  0  0  0  0  0  0  0  0  0  0  0
   -4.7224   -7.9122    0.0000 N   0  0  0  0  0  0  0  0  0  0  0  0
   -3.5181   -6.6510    0.0000 C   0  0  0  0  0  0  0  0  0  0  0  0
   -5.0181   -6.6510    0.0000 O   0  0  0  0  0  0  0  0  0  0  0  0
   -1.5000    0.0000    0.0000 C   0  0  0  0  0  0  0  0  0  0  0  0
   -0.7500   -1.2990    0.0000 C   0  0  0  0  0  0  0  0  0  0  0  0
  1  2  1  0
  2  3  1  0
  3  4  2  0
  3  5  1  0
  5  6  1  0
  6  7  1  0
  7  8  1  0
  8  9  1  0
  9 10  1  0
 10 11  1  0
 11 12  1  0
 12 13  2  0
 12 14  1  0
 14 15  1  0
 15 16  1  0
 16 17  1  0
 17 18  1  0
 18 19  1  0
 19 20  1  0
 20 21  1  0
 21 22  1  0
 22 23  1  0
 23 24  1  0
 24 25  1  0
 25 26  1  0
 26 27  2  0
 26 28  1  0
 28 29  2  0
 29 30  1  0
 30 31  2  0
 31 32  1  0
 32 33  2  0
 33 34  1  0
 34 35  2  0
 32 36  1  0
 36 37  2  0
 37 38  1  0
 38 39  2  0
 39 40  1  0
 19 41  1  0
 41 42  1  0
 39 10  1  0
 16 14  1  0
 35 25  1  0
 40 36  1  0
 42 16  1  0
 35 30  1  0
M  END
>  <molecule_chembl_id>  (723) 
CHEMBL4863325

>  <canonical_smiles>  (723) 
CCC(=O)CCCCCC1NC(=O)C2CC23CCN(CCCCCn2c(=O)ccc4cc(ccc42)-c2cnc1o2)CC3

>  <pchembl_value_mean>  (723) 
6.58

>  <document_chembl_id>  (723) 
CHEMBL4811291

$$$$

     RDKit          2D

 34 37  0  0  0  0  0  0  0  0999 V2000
    5.4627   -4.5501    0.0000 C   0  0  0  0  0  0  0  0  0  0  0  0
    3.9955   -4.2382    0.0000 C   0  0  0  0  0  0  0  0  0  0  0  0
    3.5320   -2.8116    0.0000 O   0  0  0  0  0  0  0  0  0  0  0  0
    2.9918   -5.3529    0.0000 N   0  0  0  0  0  0  0  0  0  0  0  0
    1.5000   -5.1962    0.0000 C   0  0  0  0  0  0  0  0  0  0  0  0
    0.7500   -3.8971    0.0000 N   0  0  0  0  0  0  0  0  0  0  0  0
    1.5000   -2.5981    0.0000 C   0  0  0  0  0  0  0  0  0  0  0  0
    0.7500   -1.2990    0.0000 C   0  0  0  0  0  0  0  0  0  0  0  0
    1.5000    0.0000    0.0000 C   0  0  0  0  0  0  0  0  0  0  0  0
    0.7500    1.2990    0.0000 C   0  0  0  0  0  0  0  0  0  0  0  0
   -0.7500    1.2990    0.0000 C   0  0  0  0  0  0  0  0  0  0  0  0
   -1.5000    2.5981    0.0000 C   0  0  0  0  0  0  0  0  0  0  0  0
   -3.0000    2.5981    0.0000 O   0  0  0  0  0  0  0  0  0  0  0  0
   -0.7500    3.8971    0.0000 N   0  0  0  0  0  0  0  0  0  0  0  0
   -1.5000    5.1962    0.0000 C   0  0  0  0  0  0  0  0  0  0  0  0
   -0.7500    6.4952    0.0000 C   0  0  0  0  0  0  0  0  0  0  0  0
   -1.5000    7.7942    0.0000 C   0  0  0  0  0  0  0  0  0  0  0  0
   -3.0000    7.7942    0.0000 C   0  0  0  0  0  0  0  0  0  0  0  0
   -3.7500    6.4952    0.0000 C   0  0  0  0  0  0  0  0  0  0  0  0
   -3.0000    5.1962    0.0000 C   0  0  0  0  0  0  0  0  0  0  0  0
   -3.7500    3.8971    0.0000 N   0  0  0  0  0  0  0  0  0  0  0  0
   -1.5000    0.0000    0.0000 C   0  0  0  0  0  0  0  0  0  0  0  0
   -0.7500   -1.2990    0.0000 C   0  0  0  0  0  0  0  0  0  0  0  0
    0.8899   -6.5665    0.0000 N   0  0  0  0  0  0  0  0  0  0  0  0
    2.0046   -7.5702    0.0000 C   0  0  0  0  0  0  0  0  0  0  0  0
    1.8478   -9.0619    0.0000 O   0  0  0  0  0  0  0  0  0  0  0  0
    3.3037   -6.8202    0.0000 C   0  0  0  0  0  0  0  0  0  0  0  0
    4.6740   -7.4303    0.0000 C   0  0  0  0  0  0  0  0  0  0  0  0
    4.8308   -8.9221    0.0000 C   0  0  0  0  0  0  0  0  0  0  0  0
    3.6172   -9.8037    0.0000 C   0  0  0  0  0  0  0  0  0  0  0  0
    3.7740  -11.2955    0.0000 C   0  0  0  0  0  0  0  0  0  0  0  0
    5.1443  -11.9056    0.0000 C   0  0  0  0  0  0  0  0  0  0  0  0
    6.3579  -11.0239    0.0000 C   0  0  0  0  0  0  0  0  0  0  0  0
    6.2011   -9.5322    0.0000 C   0  0  0  0  0  0  0  0  0  0  0  0
  1  2  1  0
  2  3  2  0
  2  4  1  0
  4  5  1  0
  5  6  1  0
  6  7  1  0
  7  8  1  0
  8  9  2  0
  9 10  1  0
 10 11  2  0
 11 12  1  0
 12 13  2  0
 12 14  1  0
 14 15  1  0
 15 16  2  0
 16 17  1  0
 17 18  2  0
 18 19  1  0
 19 20  2  0
 20 21  1  0
 11 22  1  0
 22 23  2  0
  5 24  2  0
 24 25  1  0
 25 26  2  0
 25 27  1  0
 27 28  1  0
 28 29  1  0
 29 30  2  0
 30 31  1  0
 31 32  2  0
 32 33  1  0
 33 34  2  0
 27  4  1  0
 34 29  1  0
 23  8  1  0
 20 15  1  0
M  END
>  <molecule_chembl_id>  (724) 
CHEMBL2407734

>  <canonical_smiles>  (724) 
CC(=O)N1C(NCc2ccc(C(=O)Nc3ccccc3N)cc2)=NC(=O)C1Cc1ccccc1

>  <pchembl_value_mean>  (724) 
6.58

>  <document_chembl_id>  (724) 
CHEMBL2407081

$$$$

     RDKit          2D

 34 37  0  0  0  0  0  0  0  0999 V2000
    4.6740   -7.4303    0.0000 C   0  0  0  0  0  0  0  0  0  0  0  0
    3.3037   -6.8202    0.0000 N   0  0  0  0  0  0  0  0  0  0  0  0
    2.9918   -5.3529    0.0000 C   0  0  0  0  0  0  0  0  0  0  0  0
    1.5000   -5.1962    0.0000 C   0  0  0  0  0  0  0  0  0  0  0  0
    0.7500   -3.8971    0.0000 C   0  0  0  0  0  0  0  0  0  0  0  0
   -0.7500   -3.8971    0.0000 O   0  0  0  0  0  0  0  0  0  0  0  0
    1.5000   -2.5981    0.0000 N   0  0  0  0  0  0  0  0  0  0  0  0
    0.7500   -1.2990    0.0000 C   0  0  0  0  0  0  0  0  0  0  0  0
    1.5000    0.0000    0.0000 C   0  0  0  0  0  0  0  0  0  0  0  0
    0.7500    1.2990    0.0000 C   0  0  0  0  0  0  0  0  0  0  0  0
   -0.7500    1.2990    0.0000 C   0  0  0  0  0  0  0  0  0  0  0  0
   -1.5000    2.5981    0.0000 Cl  0  0  0  0  0  0  0  0  0  0  0  0
   -1.5000    0.0000    0.0000 C   0  0  0  0  0  0  0  0  0  0  0  0
   -0.7500   -1.2990    0.0000 C   0  0  0  0  0  0  0  0  0  0  0  0
    0.8899   -6.5665    0.0000 C   0  0  0  0  0  0  0  0  0  0  0  0
   -0.5773   -6.8783    0.0000 C   0  0  0  0  0  0  0  0  0  0  0  0
   -1.5810   -5.7636    0.0000 C   0  0  0  0  0  0  0  0  0  0  0  0
   -3.0482   -6.0755    0.0000 C   0  0  0  0  0  0  0  0  0  0  0  0
   -3.5118   -7.5021    0.0000 C   0  0  0  0  0  0  0  0  0  0  0  0
   -4.9790   -7.8139    0.0000 C   0  0  0  0  0  0  0  0  0  0  0  0
   -5.9827   -6.6992    0.0000 C   0  0  0  0  0  0  0  0  0  0  0  0
   -7.4499   -7.0111    0.0000 C   0  0  0  0  0  0  0  0  0  0  0  0
   -7.9134   -8.4377    0.0000 O   0  0  0  0  0  0  0  0  0  0  0  0
   -8.4536   -5.8964    0.0000 N   0  0  0  0  0  0  0  0  0  0  0  0
   -9.9208   -6.2082    0.0000 C   0  0  0  0  0  0  0  0  0  0  0  0
  -10.9245   -5.0935    0.0000 C   0  0  0  0  0  0  0  0  0  0  0  0
  -12.3917   -5.4054    0.0000 C   0  0  0  0  0  0  0  0  0  0  0  0
  -12.8553   -6.8320    0.0000 C   0  0  0  0  0  0  0  0  0  0  0  0
  -11.8516   -7.9467    0.0000 C   0  0  0  0  0  0  0  0  0  0  0  0
  -10.3844   -7.6348    0.0000 C   0  0  0  0  0  0  0  0  0  0  0  0
   -9.3807   -8.7495    0.0000 N   0  0  0  0  0  0  0  0  0  0  0  0
   -2.5081   -8.6168    0.0000 C   0  0  0  0  0  0  0  0  0  0  0  0
   -1.0409   -8.3049    0.0000 C   0  0  0  0  0  0  0  0  0  0  0  0
    2.0046   -7.5702    0.0000 C   0  0  0  0  0  0  0  0  0  0  0  0
  1  2  1  0
  2  3  1  0
  3  4  1  0
  4  5  1  0
  5  6  2  0
  5  7  1  0
  7  8  1  0
  8  9  2  0
  9 10  1  0
 10 11  2  0
 11 12  1  0
 11 13  1  0
 13 14  2  0
  4 15  1  0
 15 16  1  0
 16 17  2  0
 17 18  1  0
 18 19  2  0
 19 20  1  0
 20 21  2  3
 21 22  1  0
 22 23  2  0
 22 24  1  0
 24 25  1  0
 25 26  2  0
 26 27  1  0
 27 28  2  0
 28 29  1  0
 29 30  2  0
 30 31  1  0
 19 32  1  0
 32 33  2  0
 15 34  1  0
 34  2  1  0
 14  8  1  0
 33 16  1  0
 30 25  1  0
M  END
>  <molecule_chembl_id>  (725) 
CHEMBL2177588

>  <canonical_smiles>  (725) 
CN1CC(C(=O)Nc2ccc(Cl)cc2)C(c2ccc(C=CC(=O)Nc3ccccc3N)cc2)C1

>  <pchembl_value_mean>  (725) 
6.585

>  <document_chembl_id>  (725) 
CHEMBL2177000

$$$$

     RDKit          2D

 19 20  0  0  0  0  0  0  0  0999 V2000
    3.7500    1.2990    0.0000 O   0  0  0  0  0  0  0  0  0  0  0  0
    3.0000    0.0000    0.0000 C   0  0  0  0  0  0  0  0  0  0  0  0
    3.7500   -1.2990    0.0000 N   0  0  0  0  0  0  0  0  0  0  0  0
    5.2500   -1.2990    0.0000 O   0  0  0  0  0  0  0  0  0  0  0  0
    1.5000    0.0000    0.0000 C   0  0  0  0  0  0  0  0  0  0  0  0
    0.7500   -1.2990    0.0000 C   0  0  0  0  0  0  0  0  0  0  0  0
   -0.7500   -1.2990    0.0000 N   0  0  0  0  0  0  0  0  0  0  0  0
   -1.5000    0.0000    0.0000 C   0  0  0  0  0  0  0  0  0  0  0  0
   -3.0000    0.0000    0.0000 N   0  0  0  0  0  0  0  0  0  0  0  0
   -3.7500    1.2990    0.0000 C   0  0  0  0  0  0  0  0  0  0  0  0
   -5.2500    1.2990    0.0000 C   0  0  0  0  0  0  0  0  0  0  0  0
   -6.0000    2.5981    0.0000 C   0  0  0  0  0  0  0  0  0  0  0  0
   -5.2500    3.8971    0.0000 C   0  0  0  0  0  0  0  0  0  0  0  0
   -6.0000    5.1962    0.0000 C   0  0  0  0  0  0  0  0  0  0  0  0
   -7.5000    5.1962    0.0000 C   0  0  0  0  0  0  0  0  0  0  0  0
   -8.2500    3.8971    0.0000 C   0  0  0  0  0  0  0  0  0  0  0  0
   -7.5000    2.5981    0.0000 C   0  0  0  0  0  0  0  0  0  0  0  0
   -0.7500    1.2990    0.0000 N   0  0  0  0  0  0  0  0  0  0  0  0
    0.7500    1.2990    0.0000 C   0  0  0  0  0  0  0  0  0  0  0  0
  1  2  2  0
  2  3  1  0
  3  4  1  0
  2  5  1  0
  5  6  2  0
  6  7  1  0
  7  8  2  0
  8  9  1  0
  9 10  1  0
 10 11  1  0
 11 12  1  0
 12 13  2  0
 13 14  1  0
 14 15  2  0
 15 16  1  0
 16 17  2  0
  8 18  1  0
 18 19  2  0
 19  5  1  0
 17 12  1  0
M  END
>  <molecule_chembl_id>  (726) 
CHEMBL3655924

>  <canonical_smiles>  (726) 
O=C(NO)c1cnc(NCCc2ccccc2)nc1

>  <pchembl_value_mean>  (726) 
6.59

>  <document_chembl_id>  (726) 
CHEMBL3639071

$$$$

     RDKit          2D

 31 32  0  0  0  0  0  0  0  0999 V2000
    3.0000    0.0000    0.0000 C   0  0  0  0  0  0  0  0  0  0  0  0
    1.5000    0.0000    0.0000 C   0  0  0  0  0  0  0  0  0  0  0  0
    0.7500   -1.2990    0.0000 C   0  0  0  0  0  0  0  0  0  0  0  0
    1.5000   -2.5981    0.0000 C   0  0  0  0  0  0  0  0  0  0  0  0
   -0.7500   -1.2990    0.0000 C   0  0  0  0  0  0  0  0  0  0  0  0
   -1.5000   -2.5981    0.0000 O   0  0  0  0  0  0  0  0  0  0  0  0
   -1.5000    0.0000    0.0000 C   0  0  0  0  0  0  0  0  0  0  0  0
   -3.0000    0.0000    0.0000 C   0  0  0  0  0  0  0  0  0  0  0  0
   -3.7500   -1.2990    0.0000 O   0  0  0  0  0  0  0  0  0  0  0  0
   -5.2500   -1.2990    0.0000 N   0  0  0  0  0  0  0  0  0  0  0  0
   -6.0000   -2.5981    0.0000 C   0  0  0  0  0  0  0  0  0  0  0  0
   -5.2500   -3.8971    0.0000 O   0  0  0  0  0  0  0  0  0  0  0  0
   -7.5000   -2.5981    0.0000 C   0  0  0  0  0  0  0  0  0  0  0  0
   -8.2500   -3.8971    0.0000 C   0  0  0  0  0  0  0  0  0  0  0  0
   -9.7500   -3.8971    0.0000 C   0  0  0  0  0  0  0  0  0  0  0  0
  -10.5000   -5.1962    0.0000 C   0  0  0  0  0  0  0  0  0  0  0  0
  -12.0000   -5.1962    0.0000 C   0  0  0  0  0  0  0  0  0  0  0  0
  -12.7500   -6.4952    0.0000 C   0  0  0  0  0  0  0  0  0  0  0  0
  -14.2500   -6.4952    0.0000 C   0  0  0  0  0  0  0  0  0  0  0  0
  -15.0000   -5.1962    0.0000 O   0  0  0  0  0  0  0  0  0  0  0  0
  -15.0000   -7.7942    0.0000 N   0  0  0  0  0  0  0  0  0  0  0  0
  -16.5000   -7.7942    0.0000 C   0  0  0  0  0  0  0  0  0  0  0  0
  -17.2500   -6.4952    0.0000 C   0  0  0  0  0  0  0  0  0  0  0  0
  -18.7500   -6.4952    0.0000 C   0  0  0  0  0  0  0  0  0  0  0  0
  -19.5000   -7.7942    0.0000 C   0  0  0  0  0  0  0  0  0  0  0  0
  -18.7500   -9.0933    0.0000 C   0  0  0  0  0  0  0  0  0  0  0  0
  -17.2500   -9.0933    0.0000 C   0  0  0  0  0  0  0  0  0  0  0  0
   -0.7500    1.2990    0.0000 C   0  0  0  0  0  0  0  0  0  0  0  0
   -1.5000    2.5981    0.0000 C   0  0  0  0  0  0  0  0  0  0  0  0
    0.7500    1.2990    0.0000 C   0  0  0  0  0  0  0  0  0  0  0  0
    1.5000    2.5981    0.0000 O   0  0  0  0  0  0  0  0  0  0  0  0
  1  2  1  0
  2  3  2  0
  3  4  1  0
  3  5  1  0
  5  6  2  0
  5  7  1  0
  7  8  1  0
  8  9  1  0
  9 10  1  0
 10 11  1  0
 11 12  2  0
 11 13  1  0
 13 14  1  0
 14 15  1  0
 15 16  1  0
 16 17  1  0
 17 18  1  0
 18 19  1  0
 19 20  2  0
 19 21  1  0
 21 22  1  0
 22 23  2  0
 23 24  1  0
 24 25  2  0
 25 26  1  0
 26 27  2  0
  7 28  2  0
 28 29  1  0
 28 30  1  0
 30 31  2  0
 30  2  1  0
 27 22  1  0
M  END
>  <molecule_chembl_id>  (727) 
CHEMBL3577298

>  <canonical_smiles>  (727) 
CC1=C(C)C(=O)C(CONC(=O)CCCCCCC(=O)Nc2ccccc2)=C(C)C1=O

>  <pchembl_value_mean>  (727) 
6.59

>  <document_chembl_id>  (727) 
CHEMBL3576788

$$$$

     RDKit          2D

 26 28  0  0  0  0  0  0  0  0999 V2000
    3.7500   -1.2990    0.0000 C   0  0  0  0  0  0  0  0  0  0  0  0
    3.0000    0.0000    0.0000 C   0  0  0  0  0  0  0  0  0  0  0  0
    3.7500    1.2990    0.0000 O   0  0  0  0  0  0  0  0  0  0  0  0
    1.5000    0.0000    0.0000 N   0  0  0  0  0  0  0  0  0  0  0  0
    0.7500   -1.2990    0.0000 C   0  0  0  0  0  0  0  0  0  0  0  0
   -0.7500   -1.2990    0.0000 C   0  0  0  0  0  0  0  0  0  0  0  0
   -1.5000    0.0000    0.0000 C   0  0  0  0  0  0  0  0  0  0  0  0
   -2.6491    0.9642    0.0000 N   0  0  0  0  0  0  0  0  0  0  0  0
   -2.3886    2.4414    0.0000 C   0  0  0  0  0  0  0  0  0  0  0  0
   -0.9791    2.9544    0.0000 N   0  0  0  0  0  0  0  0  0  0  0  0
   -0.7186    4.4316    0.0000 C   0  0  0  0  0  0  0  0  0  0  0  0
   -1.8676    5.3958    0.0000 C   0  0  0  0  0  0  0  0  0  0  0  0
   -1.6072    6.8730    0.0000 C   0  0  0  0  0  0  0  0  0  0  0  0
   -2.7562    7.8372    0.0000 O   0  0  0  0  0  0  0  0  0  0  0  0
   -0.1976    7.3861    0.0000 N   0  0  0  0  0  0  0  0  0  0  0  0
    0.0628    8.8633    0.0000 O   0  0  0  0  0  0  0  0  0  0  0  0
   -3.2772    4.8828    0.0000 C   0  0  0  0  0  0  0  0  0  0  0  0
   -3.5377    3.4056    0.0000 N   0  0  0  0  0  0  0  0  0  0  0  0
   -2.6491   -0.9642    0.0000 C   0  0  0  0  0  0  0  0  0  0  0  0
   -4.0586   -0.4512    0.0000 C   0  0  0  0  0  0  0  0  0  0  0  0
   -5.2077   -1.4153    0.0000 C   0  0  0  0  0  0  0  0  0  0  0  0
   -4.9472   -2.8925    0.0000 C   0  0  0  0  0  0  0  0  0  0  0  0
   -3.5377   -3.4056    0.0000 C   0  0  0  0  0  0  0  0  0  0  0  0
   -2.3886   -2.4414    0.0000 C   0  0  0  0  0  0  0  0  0  0  0  0
   -0.7500    1.2990    0.0000 C   0  0  0  0  0  0  0  0  0  0  0  0
    0.7500    1.2990    0.0000 C   0  0  0  0  0  0  0  0  0  0  0  0
  1  2  1  0
  2  3  2  0
  2  4  1  0
  4  5  1  0
  5  6  1  0
  6  7  1  0
  7  8  1  0
  8  9  1  0
  9 10  2  0
 10 11  1  0
 11 12  2  0
 12 13  1  0
 13 14  2  0
 13 15  1  0
 15 16  1  0
 12 17  1  0
 17 18  2  0
  7 19  1  0
 19 20  2  0
 20 21  1  0
 21 22  2  0
 22 23  1  0
 23 24  2  0
  7 25  1  0
 25 26  1  0
 26  4  1  0
 18  9  1  0
 24 19  1  0
M  END
>  <molecule_chembl_id>  (728) 
CHEMBL3929319

>  <canonical_smiles>  (728) 
CC(=O)N1CCC(Nc2ncc(C(=O)NO)cn2)(c2ccccc2)CC1

>  <pchembl_value_mean>  (728) 
6.59

>  <document_chembl_id>  (728) 
CHEMBL3886590

$$$$

     RDKit          2D

 37 41  0  0  0  0  0  0  0  0999 V2000
   -1.3700  -16.2174    0.0000 N   0  0  0  0  0  0  0  0  0  0  0  0
   -2.7404  -16.8275    0.0000 C   0  0  0  0  0  0  0  0  0  0  0  0
   -2.8972  -18.3193    0.0000 C   0  0  0  0  0  0  0  0  0  0  0  0
   -4.2675  -18.9294    0.0000 C   0  0  0  0  0  0  0  0  0  0  0  0
   -5.4810  -18.0477    0.0000 C   0  0  0  0  0  0  0  0  0  0  0  0
   -5.3242  -16.5560    0.0000 C   0  0  0  0  0  0  0  0  0  0  0  0
   -3.9539  -15.9458    0.0000 C   0  0  0  0  0  0  0  0  0  0  0  0
   -3.7971  -14.4541    0.0000 N   0  0  0  0  0  0  0  0  0  0  0  0
   -2.4268  -13.8440    0.0000 C   0  0  0  0  0  0  0  0  0  0  0  0
   -1.2133  -14.7256    0.0000 O   0  0  0  0  0  0  0  0  0  0  0  0
   -2.2700  -12.3522    0.0000 C   0  0  0  0  0  0  0  0  0  0  0  0
   -0.8997  -11.7421    0.0000 C   0  0  0  0  0  0  0  0  0  0  0  0
   -0.7429  -10.2503    0.0000 C   0  0  0  0  0  0  0  0  0  0  0  0
   -1.9564   -9.3686    0.0000 C   0  0  0  0  0  0  0  0  0  0  0  0
   -1.7996   -7.8768    0.0000 N   0  0  0  0  0  0  0  0  0  0  0  0
   -0.4293   -7.2667    0.0000 C   0  0  0  0  0  0  0  0  0  0  0  0
    0.7842   -8.1484    0.0000 O   0  0  0  0  0  0  0  0  0  0  0  0
   -0.2725   -5.7749    0.0000 C   0  0  0  0  0  0  0  0  0  0  0  0
    1.0978   -5.1648    0.0000 C   0  0  0  0  0  0  0  0  0  0  0  0
    1.2546   -3.6731    0.0000 N   0  0  0  0  0  0  0  0  0  0  0  0
    0.1399   -2.6694    0.0000 C   0  0  0  0  0  0  0  0  0  0  0  0
   -1.3273   -2.9812    0.0000 O   0  0  0  0  0  0  0  0  0  0  0  0
    0.7500   -1.2990    0.0000 C   0  0  0  0  0  0  0  0  0  0  0  0
    1.5000    0.0000    0.0000 O   0  0  0  0  0  0  0  0  0  0  0  0
    0.7500    1.2990    0.0000 C   0  0  0  0  0  0  0  0  0  0  0  0
   -0.7500    1.2990    0.0000 C   0  0  0  0  0  0  0  0  0  0  0  0
   -1.5000    0.0000    0.0000 C   0  0  0  0  0  0  0  0  0  0  0  0
   -0.7500   -1.2990    0.0000 O   0  0  0  0  0  0  0  0  0  0  0  0
    2.2418   -1.4558    0.0000 C   0  0  0  0  0  0  0  0  0  0  0  0
    3.3565   -0.4521    0.0000 C   0  0  0  0  0  0  0  0  0  0  0  0
    4.7831   -0.9157    0.0000 C   0  0  0  0  0  0  0  0  0  0  0  0
    5.8978    0.0880    0.0000 Cl  0  0  0  0  0  0  0  0  0  0  0  0
    5.0950   -2.3829    0.0000 C   0  0  0  0  0  0  0  0  0  0  0  0
    3.9802   -3.3866    0.0000 C   0  0  0  0  0  0  0  0  0  0  0  0
    2.5537   -2.9231    0.0000 C   0  0  0  0  0  0  0  0  0  0  0  0
   -3.3267   -9.9787    0.0000 C   0  0  0  0  0  0  0  0  0  0  0  0
   -3.4835  -11.4705    0.0000 C   0  0  0  0  0  0  0  0  0  0  0  0
  1  2  1  0
  2  3  2  0
  3  4  1  0
  4  5  2  0
  5  6  1  0
  6  7  2  0
  7  8  1  0
  8  9  1  0
  9 10  2  0
  9 11  1  0
 11 12  2  0
 12 13  1  0
 13 14  2  0
 14 15  1  0
 15 16  1  0
 16 17  2  0
 16 18  1  0
 18 19  1  0
 19 20  1  0
 20 21  1  0
 21 22  2  0
 21 23  1  0
 23 24  1  0
 24 25  1  0
 25 26  1  0
 26 27  1  0
 27 28  1  0
 23 29  1  0
 29 30  2  0
 30 31  1  0
 31 32  1  0
 31 33  2  0
 33 34  1  0
 34 35  2  0
 14 36  1  0
 36 37  2  0
  7  2  1  0
 37 11  1  0
 35 20  1  0
 28 23  1  0
 35 29  1  0
M  END
>  <molecule_chembl_id>  (729) 
CHEMBL4082466

>  <canonical_smiles>  (729) 
Nc1ccccc1NC(=O)c1ccc(NC(=O)CCN2C(=O)C3(OCCCO3)c3cc(Cl)ccc32)cc1

>  <pchembl_value_mean>  (729) 
6.59

>  <document_chembl_id>  (729) 
CHEMBL4033688

$$$$

     RDKit          2D

 35 39  0  0  0  0  0  0  0  0999 V2000
   -0.5864  -10.4561    0.0000 C   0  0  0  0  0  0  0  0  0  0  0  0
    0.6272   -9.5744    0.0000 C   0  0  0  0  0  0  0  0  0  0  0  0
    0.4704   -8.0826    0.0000 C   0  0  0  0  0  0  0  0  0  0  0  0
    1.6839   -7.2010    0.0000 C   0  0  0  0  0  0  0  0  0  0  0  0
    1.5271   -5.7092    0.0000 C   0  0  0  0  0  0  0  0  0  0  0  0
    0.1568   -5.0991    0.0000 N   0  0  0  0  0  0  0  0  0  0  0  0
   -0.0000   -3.6073    0.0000 C   0  0  0  0  0  0  0  0  0  0  0  0
   -1.2135   -2.7256    0.0000 S   0  0  0  0  0  0  0  0  0  0  0  0
   -0.7500   -1.2990    0.0000 C   0  0  0  0  0  0  0  0  0  0  0  0
    0.7500   -1.2990    0.0000 C   0  0  0  0  0  0  0  0  0  0  0  0
    1.2135   -2.7256    0.0000 C   0  0  0  0  0  0  0  0  0  0  0  0
    2.5838   -3.3357    0.0000 C   0  0  0  0  0  0  0  0  0  0  0  0
    3.7974   -2.4540    0.0000 O   0  0  0  0  0  0  0  0  0  0  0  0
    2.7406   -4.8275    0.0000 N   0  0  0  0  0  0  0  0  0  0  0  0
    1.5000    0.0000    0.0000 C   0  0  0  0  0  0  0  0  0  0  0  0
    0.7500    1.2990    0.0000 C   0  0  0  0  0  0  0  0  0  0  0  0
   -0.7500    1.2990    0.0000 N   0  0  0  0  0  0  0  0  0  0  0  0
   -1.5000    2.5981    0.0000 C   0  0  0  0  0  0  0  0  0  0  0  0
   -1.5000    0.0000    0.0000 C   0  0  0  0  0  0  0  0  0  0  0  0
    3.0542   -7.8111    0.0000 C   0  0  0  0  0  0  0  0  0  0  0  0
    3.2110   -9.3029    0.0000 C   0  0  0  0  0  0  0  0  0  0  0  0
    4.5813   -9.9130    0.0000 C   0  0  0  0  0  0  0  0  0  0  0  0
    1.9975  -10.1845    0.0000 C   0  0  0  0  0  0  0  0  0  0  0  0
    2.1543  -11.6763    0.0000 O   0  0  0  0  0  0  0  0  0  0  0  0
    0.9408  -12.5580    0.0000 C   0  0  0  0  0  0  0  0  0  0  0  0
    1.0975  -14.0498    0.0000 C   0  0  0  0  0  0  0  0  0  0  0  0
   -0.1160  -14.9315    0.0000 C   0  0  0  0  0  0  0  0  0  0  0  0
    0.0408  -16.4232    0.0000 C   0  0  0  0  0  0  0  0  0  0  0  0
    1.4111  -17.0333    0.0000 C   0  0  0  0  0  0  0  0  0  0  0  0
    2.6247  -16.1517    0.0000 C   0  0  0  0  0  0  0  0  0  0  0  0
    3.9950  -16.7618    0.0000 C   0  0  0  0  0  0  0  0  0  0  0  0
    5.2085  -15.8801    0.0000 O   0  0  0  0  0  0  0  0  0  0  0  0
    4.1518  -18.2536    0.0000 N   0  0  0  0  0  0  0  0  0  0  0  0
    5.5221  -18.8637    0.0000 O   0  0  0  0  0  0  0  0  0  0  0  0
    2.4679  -14.6599    0.0000 C   0  0  0  0  0  0  0  0  0  0  0  0
  1  2  1  0
  2  3  2  0
  3  4  1  0
  4  5  1  0
  5  6  2  0
  6  7  1  0
  7  8  1  0
  8  9  1  0
  9 10  2  0
 10 11  1  0
 11 12  1  0
 12 13  2  0
 12 14  1  0
 10 15  1  0
 15 16  1  0
 16 17  1  0
 17 18  1  0
 17 19  1  0
  4 20  2  0
 20 21  1  0
 21 22  1  0
 21 23  2  0
 23 24  1  0
 24 25  1  0
 25 26  1  0
 26 27  2  0
 27 28  1  0
 28 29  2  0
 29 30  1  0
 30 31  1  0
 31 32  2  0
 31 33  1  0
 33 34  1  0
 30 35  2  0
 23  2  1  0
 35 26  1  0
 14  5  1  0
 11  7  2  0
 19  9  1  0
M  END
>  <molecule_chembl_id>  (730) 
CHEMBL4443980

>  <canonical_smiles>  (730) 
Cc1cc(-c2nc3sc4c(c3c(=O)[nH]2)CCN(C)C4)cc(C)c1OCc1cccc(C(=O)NO)c1

>  <pchembl_value_mean>  (730) 
6.6

>  <document_chembl_id>  (730) 
CHEMBL4342471

$$$$

     RDKit          2D

 30 33  0  0  0  0  0  0  0  0999 V2000
    3.0000    0.0000    0.0000 N   0  0  0  0  0  0  0  0  0  0  0  0
    1.5000    0.0000    0.0000 C   0  0  0  0  0  0  0  0  0  0  0  0
    0.7500   -1.2990    0.0000 C   0  0  0  0  0  0  0  0  0  0  0  0
   -0.7500   -1.2990    0.0000 C   0  0  0  0  0  0  0  0  0  0  0  0
   -1.5000    0.0000    0.0000 C   0  0  0  0  0  0  0  0  0  0  0  0
   -0.7500    1.2990    0.0000 C   0  0  0  0  0  0  0  0  0  0  0  0
    0.7500    1.2990    0.0000 C   0  0  0  0  0  0  0  0  0  0  0  0
    1.5000    2.5981    0.0000 N   0  0  0  0  0  0  0  0  0  0  0  0
    0.7500    3.8971    0.0000 C   0  0  0  0  0  0  0  0  0  0  0  0
   -0.7500    3.8971    0.0000 O   0  0  0  0  0  0  0  0  0  0  0  0
    1.5000    5.1962    0.0000 C   0  0  0  0  0  0  0  0  0  0  0  0
    3.0000    5.1962    0.0000 C   0  0  0  0  0  0  0  0  0  0  0  0
    3.7500    6.4952    0.0000 C   0  0  0  0  0  0  0  0  0  0  0  0
    3.0000    7.7942    0.0000 C   0  0  0  0  0  0  0  0  0  0  0  0
    3.7500    9.0933    0.0000 C   0  0  0  0  0  0  0  0  0  0  0  0
    5.2500    9.0933    0.0000 S   0  0  0  0  0  0  0  0  0  0  0  0
    6.0000   10.3923    0.0000 C   0  0  0  0  0  0  0  0  0  0  0  0
    5.3899   11.7626    0.0000 N   0  0  0  0  0  0  0  0  0  0  0  0
    6.5046   12.7663    0.0000 C   0  0  0  0  0  0  0  0  0  0  0  0
    6.3478   14.2581    0.0000 C   0  0  0  0  0  0  0  0  0  0  0  0
    7.5613   15.1398    0.0000 C   0  0  0  0  0  0  0  0  0  0  0  0
    8.9317   14.5297    0.0000 C   0  0  0  0  0  0  0  0  0  0  0  0
   10.1452   15.4114    0.0000 C   0  0  0  0  0  0  0  0  0  0  0  0
    9.9884   16.9031    0.0000 C   0  0  0  0  0  0  0  0  0  0  0  0
    8.6181   17.5132    0.0000 C   0  0  0  0  0  0  0  0  0  0  0  0
    7.4046   16.6316    0.0000 C   0  0  0  0  0  0  0  0  0  0  0  0
    7.8037   12.0163    0.0000 C   0  0  0  0  0  0  0  0  0  0  0  0
    7.4918   10.5491    0.0000 O   0  0  0  0  0  0  0  0  0  0  0  0
    1.5000    7.7942    0.0000 C   0  0  0  0  0  0  0  0  0  0  0  0
    0.7500    6.4952    0.0000 C   0  0  0  0  0  0  0  0  0  0  0  0
  1  2  1  0
  2  3  2  0
  3  4  1  0
  4  5  2  0
  5  6  1  0
  6  7  2  0
  7  8  1  0
  8  9  1  0
  9 10  2  0
  9 11  1  0
 11 12  2  0
 12 13  1  0
 13 14  2  0
 14 15  1  0
 15 16  1  0
 16 17  1  0
 17 18  2  0
 18 19  1  0
 19 20  1  0
 20 21  1  0
 21 22  2  0
 22 23  1  0
 23 24  2  0
 24 25  1  0
 25 26  2  0
 19 27  1  0
 27 28  1  0
 14 29  1  0
 29 30  2  0
  7  2  1  0
 30 11  1  0
 28 17  1  0
 26 21  1  0
M  END
>  <molecule_chembl_id>  (731) 
CHEMBL3605493

>  <canonical_smiles>  (731) 
Nc1ccccc1NC(=O)c1ccc(CSC2=NC(Cc3ccccc3)CO2)cc1

>  <pchembl_value_mean>  (731) 
6.6

>  <document_chembl_id>  (731) 
CHEMBL3603817

$$$$

     RDKit          2D

 29 31  0  0  0  0  0  0  0  0999 V2000
   10.7824  -13.2397    0.0000 C   0  0  0  0  0  0  0  0  0  0  0  0
    9.4121  -12.6296    0.0000 C   0  0  0  0  0  0  0  0  0  0  0  0
    9.2553  -11.1379    0.0000 C   0  0  0  0  0  0  0  0  0  0  0  0
   10.4688  -10.2562    0.0000 O   0  0  0  0  0  0  0  0  0  0  0  0
    7.8850  -10.5278    0.0000 C   0  0  0  0  0  0  0  0  0  0  0  0
    7.7282   -9.0360    0.0000 C   0  0  0  0  0  0  0  0  0  0  0  0
    6.3579   -8.4259    0.0000 C   0  0  0  0  0  0  0  0  0  0  0  0
    6.2011   -6.9341    0.0000 C   0  0  0  0  0  0  0  0  0  0  0  0
    4.8308   -6.3240    0.0000 C   0  0  0  0  0  0  0  0  0  0  0  0
    4.6740   -4.8322    0.0000 C   0  0  0  0  0  0  0  0  0  0  0  0
    5.8875   -3.9505    0.0000 N   0  0  0  0  0  0  0  0  0  0  0  0
    7.2578   -4.5606    0.0000 C   0  0  0  0  0  0  0  0  0  0  0  0
    7.4146   -6.0524    0.0000 O   0  0  0  0  0  0  0  0  0  0  0  0
    8.4713   -3.6789    0.0000 C   0  0  0  0  0  0  0  0  0  0  0  0
    9.9529   -3.9136    0.0000 C   0  0  0  0  0  0  0  0  0  0  0  0
   10.1875   -2.4321    0.0000 N   0  0  0  0  0  0  0  0  0  0  0  0
   11.4010   -1.5504    0.0000 C   0  0  0  0  0  0  0  0  0  0  0  0
    8.7060   -2.1974    0.0000 C   0  0  0  0  0  0  0  0  0  0  0  0
    3.3037   -4.2221    0.0000 C   0  0  0  0  0  0  0  0  0  0  0  0
    2.0046   -4.9721    0.0000 N   0  0  0  0  0  0  0  0  0  0  0  0
    0.8899   -3.9684    0.0000 C   0  0  0  0  0  0  0  0  0  0  0  0
    1.5000   -2.5981    0.0000 C   0  0  0  0  0  0  0  0  0  0  0  0
    0.7500   -1.2990    0.0000 C   0  0  0  0  0  0  0  0  0  0  0  0
    1.5000    0.0000    0.0000 C   0  0  0  0  0  0  0  0  0  0  0  0
    0.7500    1.2990    0.0000 C   0  0  0  0  0  0  0  0  0  0  0  0
   -0.7500    1.2990    0.0000 C   0  0  0  0  0  0  0  0  0  0  0  0
   -1.5000    0.0000    0.0000 C   0  0  0  0  0  0  0  0  0  0  0  0
   -0.7500   -1.2990    0.0000 C   0  0  0  0  0  0  0  0  0  0  0  0
    2.9918   -2.7549    0.0000 N   0  0  0  0  0  0  0  0  0  0  0  0
  1  2  1  0
  2  3  1  0
  3  4  2  0
  3  5  1  0
  5  6  1  0
  6  7  1  0
  7  8  1  0
  8  9  1  0
  9 10  1  0
 10 11  1  0
 11 12  1  0
 12 13  2  0
 12 14  1  0
 14 15  1  0
 15 16  1  0
 16 17  1  0
 16 18  1  0
 10 19  1  0
 19 20  2  0
 20 21  1  0
 21 22  2  0
 22 23  1  0
 23 24  2  0
 24 25  1  0
 25 26  2  0
 26 27  1  0
 27 28  2  0
 22 29  1  0
 18 14  1  0
 29 19  1  0
 28 23  1  0
M  END
>  <molecule_chembl_id>  (732) 
CHEMBL4869027

>  <canonical_smiles>  (732) 
CCC(=O)CCCCCC(NC(=O)C1CN(C)C1)c1ncc(-c2ccccc2)[nH]1

>  <pchembl_value_mean>  (732) 
6.6

>  <document_chembl_id>  (732) 
CHEMBL4811291

$$$$

     RDKit          2D

 20 21  0  0  0  0  0  0  0  0999 V2000
    3.7500    1.2990    0.0000 O   0  0  0  0  0  0  0  0  0  0  0  0
    3.0000    0.0000    0.0000 C   0  0  0  0  0  0  0  0  0  0  0  0
    3.7500   -1.2990    0.0000 N   0  0  0  0  0  0  0  0  0  0  0  0
    5.2500   -1.2990    0.0000 O   0  0  0  0  0  0  0  0  0  0  0  0
    1.5000    0.0000    0.0000 C   0  0  0  0  0  0  0  0  0  0  0  0
    0.7500   -1.2990    0.0000 C   0  0  0  0  0  0  0  0  0  0  0  0
   -0.7500   -1.2990    0.0000 N   0  0  0  0  0  0  0  0  0  0  0  0
   -1.5000    0.0000    0.0000 C   0  0  0  0  0  0  0  0  0  0  0  0
   -3.0000    0.0000    0.0000 N   0  0  0  0  0  0  0  0  0  0  0  0
   -3.7500    1.2990    0.0000 C   0  0  0  0  0  0  0  0  0  0  0  0
   -5.2500    1.2990    0.0000 C   0  0  0  0  0  0  0  0  0  0  0  0
   -6.0000    2.5981    0.0000 C   0  0  0  0  0  0  0  0  0  0  0  0
   -5.2500    3.8971    0.0000 C   0  0  0  0  0  0  0  0  0  0  0  0
   -6.0000    5.1962    0.0000 C   0  0  0  0  0  0  0  0  0  0  0  0
   -7.5000    5.1962    0.0000 C   0  0  0  0  0  0  0  0  0  0  0  0
   -8.2500    6.4952    0.0000 Cl  0  0  0  0  0  0  0  0  0  0  0  0
   -8.2500    3.8971    0.0000 C   0  0  0  0  0  0  0  0  0  0  0  0
   -7.5000    2.5981    0.0000 C   0  0  0  0  0  0  0  0  0  0  0  0
   -0.7500    1.2990    0.0000 N   0  0  0  0  0  0  0  0  0  0  0  0
    0.7500    1.2990    0.0000 C   0  0  0  0  0  0  0  0  0  0  0  0
  1  2  2  0
  2  3  1  0
  3  4  1  0
  2  5  1  0
  5  6  2  0
  6  7  1  0
  7  8  2  0
  8  9  1  0
  9 10  1  0
 10 11  1  0
 11 12  1  0
 12 13  2  0
 13 14  1  0
 14 15  2  0
 15 16  1  0
 15 17  1  0
 17 18  2  0
  8 19  1  0
 19 20  2  0
 20  5  1  0
 18 12  1  0
M  END
>  <molecule_chembl_id>  (733) 
CHEMBL3655927

>  <canonical_smiles>  (733) 
O=C(NO)c1cnc(NCCc2ccc(Cl)cc2)nc1

>  <pchembl_value_mean>  (733) 
6.6

>  <document_chembl_id>  (733) 
CHEMBL3639071

$$$$

     RDKit          2D

 36 39  0  0  0  0  0  0  0  0999 V2000
    3.0000    0.0000    0.0000 N   0  0  0  0  0  0  0  0  0  0  0  0
    1.5000    0.0000    0.0000 C   0  0  0  0  0  0  0  0  0  0  0  0
    0.7500   -1.2990    0.0000 C   0  0  0  0  0  0  0  0  0  0  0  0
   -0.7500   -1.2990    0.0000 C   0  0  0  0  0  0  0  0  0  0  0  0
   -1.5000    0.0000    0.0000 C   0  0  0  0  0  0  0  0  0  0  0  0
   -0.7500    1.2990    0.0000 C   0  0  0  0  0  0  0  0  0  0  0  0
    0.7500    1.2990    0.0000 C   0  0  0  0  0  0  0  0  0  0  0  0
    1.5000    2.5981    0.0000 N   0  0  0  0  0  0  0  0  0  0  0  0
    0.7500    3.8971    0.0000 C   0  0  0  0  0  0  0  0  0  0  0  0
   -0.7500    3.8971    0.0000 O   0  0  0  0  0  0  0  0  0  0  0  0
    1.5000    5.1962    0.0000 C   0  0  0  0  0  0  0  0  0  0  0  0
    3.0000    5.1962    0.0000 C   0  0  0  0  0  0  0  0  0  0  0  0
    3.7500    6.4952    0.0000 C   0  0  0  0  0  0  0  0  0  0  0  0
    3.0000    7.7942    0.0000 C   0  0  0  0  0  0  0  0  0  0  0  0
    3.7500    9.0933    0.0000 C   0  0  0  0  0  0  0  0  0  0  0  0
    5.2500    9.0933    0.0000 N   0  0  0  0  0  0  0  0  0  0  0  0
    6.0000   10.3923    0.0000 C   0  0  0  0  0  0  0  0  0  0  0  0
    5.2500   11.6913    0.0000 O   0  0  0  0  0  0  0  0  0  0  0  0
    7.5000   10.3923    0.0000 C   0  0  0  0  0  0  0  0  0  0  0  0
    8.3817   11.6058    0.0000 N   0  0  0  0  0  0  0  0  0  0  0  0
    9.8083   11.1423    0.0000 N   0  0  0  0  0  0  0  0  0  0  0  0
    9.8083    9.6423    0.0000 C   0  0  0  0  0  0  0  0  0  0  0  0
    8.3817    9.1788    0.0000 C   0  0  0  0  0  0  0  0  0  0  0  0
    7.9182    7.7522    0.0000 N   0  0  0  0  0  0  0  0  0  0  0  0
    8.9218    6.6375    0.0000 C   0  0  0  0  0  0  0  0  0  0  0  0
   10.3891    6.9493    0.0000 O   0  0  0  0  0  0  0  0  0  0  0  0
    8.4583    5.2109    0.0000 C   0  0  0  0  0  0  0  0  0  0  0  0
    6.9911    4.8990    0.0000 C   0  0  0  0  0  0  0  0  0  0  0  0
    5.9874    6.0137    0.0000 Cl  0  0  0  0  0  0  0  0  0  0  0  0
    6.5276    3.4724    0.0000 C   0  0  0  0  0  0  0  0  0  0  0  0
    7.5313    2.3577    0.0000 C   0  0  0  0  0  0  0  0  0  0  0  0
    8.9985    2.6696    0.0000 C   0  0  0  0  0  0  0  0  0  0  0  0
    9.4620    4.0962    0.0000 C   0  0  0  0  0  0  0  0  0  0  0  0
   10.9292    4.4080    0.0000 Cl  0  0  0  0  0  0  0  0  0  0  0  0
    1.5000    7.7942    0.0000 C   0  0  0  0  0  0  0  0  0  0  0  0
    0.7500    6.4952    0.0000 C   0  0  0  0  0  0  0  0  0  0  0  0
  1  2  1  0
  2  3  2  0
  3  4  1  0
  4  5  2  0
  5  6  1  0
  6  7  2  0
  7  8  1  0
  8  9  1  0
  9 10  2  0
  9 11  1  0
 11 12  2  0
 12 13  1  0
 13 14  2  0
 14 15  1  0
 15 16  1  0
 16 17  1  0
 17 18  2  0
 17 19  1  0
 19 20  2  0
 20 21  1  0
 21 22  1  0
 22 23  2  0
 23 24  1  0
 24 25  1  0
 25 26  2  0
 25 27  1  0
 27 28  2  0
 28 29  1  0
 28 30  1  0
 30 31  2  0
 31 32  1  0
 32 33  2  0
 33 34  1  0
 14 35  1  0
 35 36  2  0
  7  2  1  0
 36 11  1  0
 23 19  1  0
 33 27  1  0
M  END
>  <molecule_chembl_id>  (734) 
CHEMBL4761880

>  <canonical_smiles>  (734) 
Nc1ccccc1NC(=O)c1ccc(CNC(=O)c2n[nH]cc2NC(=O)c2c(Cl)cccc2Cl)cc1

>  <pchembl_value_mean>  (734) 
6.6

>  <document_chembl_id>  (734) 
CHEMBL4680185

$$$$

     RDKit          2D

 37 40  0  0  0  0  0  0  0  0999 V2000
    1.5342   -9.4474    0.0000 O   0  0  0  0  0  0  0  0  0  0  0  0
    0.3207   -8.5658    0.0000 C   0  0  0  0  0  0  0  0  0  0  0  0
    0.4775   -7.0740    0.0000 C   0  0  0  0  0  0  0  0  0  0  0  0
    1.8478   -6.4639    0.0000 C   0  0  0  0  0  0  0  0  0  0  0  0
    2.0046   -4.9721    0.0000 C   0  0  0  0  0  0  0  0  0  0  0  0
    0.8899   -3.9684    0.0000 C   0  0  0  0  0  0  0  0  0  0  0  0
   -0.5773   -4.2803    0.0000 O   0  0  0  0  0  0  0  0  0  0  0  0
    1.5000   -2.5981    0.0000 N   0  0  0  0  0  0  0  0  0  0  0  0
    0.7500   -1.2990    0.0000 C   0  0  0  0  0  0  0  0  0  0  0  0
    1.5000    0.0000    0.0000 C   0  0  0  0  0  0  0  0  0  0  0  0
    0.7500    1.2990    0.0000 C   0  0  0  0  0  0  0  0  0  0  0  0
   -0.7500    1.2990    0.0000 C   0  0  0  0  0  0  0  0  0  0  0  0
   -1.5000    2.5981    0.0000 Cl  0  0  0  0  0  0  0  0  0  0  0  0
   -1.5000    0.0000    0.0000 C   0  0  0  0  0  0  0  0  0  0  0  0
   -0.7500   -1.2990    0.0000 C   0  0  0  0  0  0  0  0  0  0  0  0
    2.9918   -2.7549    0.0000 C   0  0  0  0  0  0  0  0  0  0  0  0
    3.9955   -1.6402    0.0000 O   0  0  0  0  0  0  0  0  0  0  0  0
    3.3037   -4.2221    0.0000 N   0  0  0  0  0  0  0  0  0  0  0  0
    4.6740   -4.8322    0.0000 C   0  0  0  0  0  0  0  0  0  0  0  0
    4.8308   -6.3240    0.0000 C   0  0  0  0  0  0  0  0  0  0  0  0
    3.6172   -7.2057    0.0000 C   0  0  0  0  0  0  0  0  0  0  0  0
    3.7740   -8.6974    0.0000 C   0  0  0  0  0  0  0  0  0  0  0  0
    5.1443   -9.3075    0.0000 C   0  0  0  0  0  0  0  0  0  0  0  0
    5.3011  -10.7993    0.0000 Br  0  0  0  0  0  0  0  0  0  0  0  0
    6.3579   -8.4259    0.0000 C   0  0  0  0  0  0  0  0  0  0  0  0
    6.2011   -6.9341    0.0000 C   0  0  0  0  0  0  0  0  0  0  0  0
   -1.0496   -9.1759    0.0000 N   0  0  0  0  0  0  0  0  0  0  0  0
   -1.2064  -10.6676    0.0000 C   0  0  0  0  0  0  0  0  0  0  0  0
   -2.5767  -11.2778    0.0000 C   0  0  0  0  0  0  0  0  0  0  0  0
   -2.7335  -12.7695    0.0000 C   0  0  0  0  0  0  0  0  0  0  0  0
   -1.5200  -13.6512    0.0000 C   0  0  0  0  0  0  0  0  0  0  0  0
   -1.6768  -15.1430    0.0000 C   0  0  0  0  0  0  0  0  0  0  0  0
   -0.4633  -16.0247    0.0000 O   0  0  0  0  0  0  0  0  0  0  0  0
   -3.0471  -15.7531    0.0000 N   0  0  0  0  0  0  0  0  0  0  0  0
   -3.2039  -17.2449    0.0000 O   0  0  0  0  0  0  0  0  0  0  0  0
   -0.1497  -13.0411    0.0000 C   0  0  0  0  0  0  0  0  0  0  0  0
    0.0071  -11.5493    0.0000 C   0  0  0  0  0  0  0  0  0  0  0  0
  1  2  2  0
  2  3  1  0
  3  4  1  0
  4  5  1  0
  5  6  1  0
  6  7  2  0
  6  8  1  0
  8  9  1  0
  9 10  2  0
 10 11  1  0
 11 12  2  0
 12 13  1  0
 12 14  1  0
 14 15  2  0
  8 16  1  0
 16 17  2  0
 16 18  1  0
 18 19  1  0
 19 20  1  0
 20 21  2  0
 21 22  1  0
 22 23  2  0
 23 24  1  0
 23 25  1  0
 25 26  2  0
  2 27  1  0
 27 28  1  0
 28 29  2  0
 29 30  1  0
 30 31  2  0
 31 32  1  0
 32 33  2  0
 32 34  1  0
 34 35  1  0
 31 36  1  0
 36 37  2  0
 18  5  1  0
 26 20  1  0
 37 28  1  0
 15  9  1  0
M  END
>  <molecule_chembl_id>  (735) 
CHEMBL4444176

>  <canonical_smiles>  (735) 
O=C(CCC1C(=O)N(c2ccc(Cl)cc2)C(=O)N1Cc1ccc(Br)cc1)Nc1ccc(C(=O)NO)cc1

>  <pchembl_value_mean>  (735) 
6.6

>  <document_chembl_id>  (735) 
CHEMBL4304789

$$$$

     RDKit          2D

 32 35  0  0  0  0  0  0  0  0999 V2000
    3.7500   -1.2990    0.0000 C   0  0  0  0  0  0  0  0  0  0  0  0
    3.0000    0.0000    0.0000 O   0  0  0  0  0  0  0  0  0  0  0  0
    1.5000    0.0000    0.0000 C   0  0  0  0  0  0  0  0  0  0  0  0
    0.7500   -1.2990    0.0000 C   0  0  0  0  0  0  0  0  0  0  0  0
   -0.7500   -1.2990    0.0000 C   0  0  0  0  0  0  0  0  0  0  0  0
   -1.5000    0.0000    0.0000 C   0  0  0  0  0  0  0  0  0  0  0  0
   -3.0000    0.0000    0.0000 N   0  0  0  0  0  0  0  0  0  0  0  0
   -3.7500   -1.2990    0.0000 C   0  0  0  0  0  0  0  0  0  0  0  0
   -3.0000   -2.5981    0.0000 O   0  0  0  0  0  0  0  0  0  0  0  0
   -5.2500   -1.2990    0.0000 C   0  0  0  0  0  0  0  0  0  0  0  0
   -6.0000    0.0000    0.0000 C   0  0  0  0  0  0  0  0  0  0  0  0
   -7.5000    0.0000    0.0000 C   0  0  0  0  0  0  0  0  0  0  0  0
   -8.2500   -1.2990    0.0000 C   0  0  0  0  0  0  0  0  0  0  0  0
   -9.7500   -1.2990    0.0000 C   0  0  0  0  0  0  0  0  0  0  0  0
  -10.5000   -0.0000    0.0000 N   0  0  0  0  0  0  0  0  0  0  0  0
  -12.0000   -0.0000    0.0000 C   0  0  0  0  0  0  0  0  0  0  0  0
  -12.7500    1.2990    0.0000 N   0  0  0  0  0  0  0  0  0  0  0  0
  -14.2500    1.2990    0.0000 C   0  0  0  0  0  0  0  0  0  0  0  0
  -15.0000   -0.0000    0.0000 C   0  0  0  0  0  0  0  0  0  0  0  0
  -14.2500   -1.2990    0.0000 C   0  0  0  0  0  0  0  0  0  0  0  0
  -15.0000   -2.5981    0.0000 C   0  0  0  0  0  0  0  0  0  0  0  0
  -16.5000   -2.5981    0.0000 C   0  0  0  0  0  0  0  0  0  0  0  0
  -17.2500   -3.8971    0.0000 C   0  0  0  0  0  0  0  0  0  0  0  0
  -16.5000   -5.1962    0.0000 C   0  0  0  0  0  0  0  0  0  0  0  0
  -15.0000   -5.1962    0.0000 N   0  0  0  0  0  0  0  0  0  0  0  0
  -14.2500   -3.8971    0.0000 C   0  0  0  0  0  0  0  0  0  0  0  0
  -12.7500   -1.2990    0.0000 N   0  0  0  0  0  0  0  0  0  0  0  0
   -7.5000   -2.5981    0.0000 C   0  0  0  0  0  0  0  0  0  0  0  0
   -6.0000   -2.5981    0.0000 C   0  0  0  0  0  0  0  0  0  0  0  0
   -0.7500    1.2990    0.0000 C   0  0  0  0  0  0  0  0  0  0  0  0
   -1.5000    2.5981    0.0000 N   0  0  0  0  0  0  0  0  0  0  0  0
    0.7500    1.2990    0.0000 C   0  0  0  0  0  0  0  0  0  0  0  0
  1  2  1  0
  2  3  1  0
  3  4  2  0
  4  5  1  0
  5  6  2  0
  6  7  1  0
  7  8  1  0
  8  9  2  0
  8 10  1  0
 10 11  2  0
 11 12  1  0
 12 13  2  0
 13 14  1  0
 14 15  1  0
 15 16  1  0
 16 17  2  0
 17 18  1  0
 18 19  2  0
 19 20  1  0
 20 21  1  0
 21 22  2  0
 22 23  1  0
 23 24  2  0
 24 25  1  0
 25 26  2  0
 20 27  2  0
 13 28  1  0
 28 29  2  0
  6 30  1  0
 30 31  1  0
 30 32  2  0
 32  3  1  0
 29 10  1  0
 27 16  1  0
 26 21  1  0
M  END
>  <molecule_chembl_id>  (736) 
CHEMBL2407742

>  <canonical_smiles>  (736) 
COc1ccc(NC(=O)c2ccc(CNc3nccc(-c4cccnc4)n3)cc2)c(N)c1

>  <pchembl_value_mean>  (736) 
6.61

>  <document_chembl_id>  (736) 
CHEMBL2407081

$$$$

     RDKit          2D

 33 37  0  0  0  0  0  0  0  0999 V2000
    6.0000   -7.7942    0.0000 C   0  0  0  0  0  0  0  0  0  0  0  0
    5.2500   -6.4952    0.0000 O   0  0  0  0  0  0  0  0  0  0  0  0
    3.7500   -6.4952    0.0000 C   0  0  0  0  0  0  0  0  0  0  0  0
    3.0000   -5.1962    0.0000 C   0  0  0  0  0  0  0  0  0  0  0  0
    1.5000   -5.1962    0.0000 N   0  0  0  0  0  0  0  0  0  0  0  0
    0.7500   -3.8971    0.0000 C   0  0  0  0  0  0  0  0  0  0  0  0
    1.5000   -2.5981    0.0000 C   0  0  0  0  0  0  0  0  0  0  0  0
    0.7500   -1.2990    0.0000 C   0  0  0  0  0  0  0  0  0  0  0  0
    1.5000    0.0000    0.0000 N   0  0  0  0  0  0  0  0  0  0  0  0
    0.7500    1.2990    0.0000 C   0  0  0  0  0  0  0  0  0  0  0  0
   -0.7500    1.2990    0.0000 C   0  0  0  0  0  0  0  0  0  0  0  0
   -1.5000    2.5981    0.0000 C   0  0  0  0  0  0  0  0  0  0  0  0
   -3.0000    2.5981    0.0000 O   0  0  0  0  0  0  0  0  0  0  0  0
   -0.7500    3.8971    0.0000 N   0  0  0  0  0  0  0  0  0  0  0  0
   -1.5000    5.1962    0.0000 C   0  0  0  0  0  0  0  0  0  0  0  0
   -0.7500    6.4952    0.0000 C   0  0  0  0  0  0  0  0  0  0  0  0
   -1.5000    7.7942    0.0000 C   0  0  0  0  0  0  0  0  0  0  0  0
   -0.7500    9.0933    0.0000 C   0  0  0  0  0  0  0  0  0  0  0  0
   -1.3601   10.4636    0.0000 C   0  0  0  0  0  0  0  0  0  0  0  0
   -0.2454   11.4673    0.0000 C   0  0  0  0  0  0  0  0  0  0  0  0
    1.0537   10.7173    0.0000 C   0  0  0  0  0  0  0  0  0  0  0  0
    0.7418    9.2501    0.0000 S   0  0  0  0  0  0  0  0  0  0  0  0
   -3.0000    7.7942    0.0000 C   0  0  0  0  0  0  0  0  0  0  0  0
   -3.7500    6.4952    0.0000 C   0  0  0  0  0  0  0  0  0  0  0  0
   -3.0000    5.1962    0.0000 C   0  0  0  0  0  0  0  0  0  0  0  0
   -3.7500    3.8971    0.0000 N   0  0  0  0  0  0  0  0  0  0  0  0
   -1.5000    0.0000    0.0000 C   0  0  0  0  0  0  0  0  0  0  0  0
   -0.7500   -1.2990    0.0000 C   0  0  0  0  0  0  0  0  0  0  0  0
   -1.5000   -2.5981    0.0000 C   0  0  0  0  0  0  0  0  0  0  0  0
   -0.7500   -3.8971    0.0000 C   0  0  0  0  0  0  0  0  0  0  0  0
   -1.5000   -5.1962    0.0000 C   0  0  0  0  0  0  0  0  0  0  0  0
   -1.5000   -6.6962    0.0000 C   0  0  0  0  0  0  0  0  0  0  0  0
   -2.7990   -5.9462    0.0000 C   0  0  0  0  0  0  0  0  0  0  0  0
  1  2  1  0
  2  3  1  0
  3  4  1  0
  4  5  1  0
  5  6  1  0
  6  7  2  0
  7  8  1  0
  8  9  2  0
  9 10  1  0
 10 11  2  0
 11 12  1  0
 12 13  2  0
 12 14  1  0
 14 15  1  0
 15 16  2  0
 16 17  1  0
 17 18  1  0
 18 19  2  0
 19 20  1  0
 20 21  2  0
 21 22  1  0
 17 23  2  0
 23 24  1  0
 24 25  2  0
 25 26  1  0
 11 27  1  0
 27 28  2  0
 28 29  1  0
 29 30  2  0
 30 31  1  0
 31 32  1  0
 32 33  1  0
 30  6  1  0
 33 31  1  0
 28  8  1  0
 25 15  1  0
 22 18  1  0
M  END
>  <molecule_chembl_id>  (737) 
CHEMBL3968157

>  <canonical_smiles>  (737) 
COCCNc1cc2ncc(C(=O)Nc3cc(-c4cccs4)ccc3N)cc2cc1C1CC1

>  <pchembl_value_mean>  (737) 
6.61

>  <document_chembl_id>  (737) 
CHEMBL3886267

$$$$

     RDKit          2D

 20 21  0  0  0  0  0  0  0  0999 V2000
    3.0000    0.0000    0.0000 C   0  0  0  0  0  0  0  0  0  0  0  0
    1.5000    0.0000    0.0000 C   0  0  0  0  0  0  0  0  0  0  0  0
    0.7500   -1.2990    0.0000 C   0  0  0  0  0  0  0  0  0  0  0  0
   -0.7500   -1.2990    0.0000 C   0  0  0  0  0  0  0  0  0  0  0  0
   -1.5000   -2.5981    0.0000 Cl  0  0  0  0  0  0  0  0  0  0  0  0
   -1.5000    0.0000    0.0000 C   0  0  0  0  0  0  0  0  0  0  0  0
   -0.7500    1.2990    0.0000 C   0  0  0  0  0  0  0  0  0  0  0  0
    0.7500    1.2990    0.0000 C   0  0  0  0  0  0  0  0  0  0  0  0
    1.5000    2.5981    0.0000 C   0  0  0  0  0  0  0  0  0  0  0  0
    0.7500    3.8971    0.0000 N   0  0  0  0  0  0  0  0  0  0  0  0
    1.5000    5.1962    0.0000 C   0  0  0  0  0  0  0  0  0  0  0  0
    3.0000    5.1962    0.0000 N   0  0  0  0  0  0  0  0  0  0  0  0
    3.7500    6.4952    0.0000 C   0  0  0  0  0  0  0  0  0  0  0  0
    3.0000    7.7942    0.0000 C   0  0  0  0  0  0  0  0  0  0  0  0
    3.7500    9.0933    0.0000 C   0  0  0  0  0  0  0  0  0  0  0  0
    3.0000   10.3923    0.0000 O   0  0  0  0  0  0  0  0  0  0  0  0
    5.2500    9.0933    0.0000 N   0  0  0  0  0  0  0  0  0  0  0  0
    6.0000   10.3923    0.0000 O   0  0  0  0  0  0  0  0  0  0  0  0
    1.5000    7.7942    0.0000 C   0  0  0  0  0  0  0  0  0  0  0  0
    0.7500    6.4952    0.0000 N   0  0  0  0  0  0  0  0  0  0  0  0
  1  2  1  0
  2  3  2  0
  3  4  1  0
  4  5  1  0
  4  6  2  0
  6  7  1  0
  7  8  2  0
  8  9  1  0
  9 10  1  0
 10 11  1  0
 11 12  2  0
 12 13  1  0
 13 14  2  0
 14 15  1  0
 15 16  2  0
 15 17  1  0
 17 18  1  0
 14 19  1  0
 19 20  2  0
  8  2  1  0
 20 11  1  0
M  END
>  <molecule_chembl_id>  (738) 
CHEMBL3655935

>  <canonical_smiles>  (738) 
Cc1cc(Cl)ccc1CNc1ncc(C(=O)NO)cn1

>  <pchembl_value_mean>  (738) 
6.61

>  <document_chembl_id>  (738) 
CHEMBL3639071

$$$$

     RDKit          2D

 18 19  0  0  0  0  0  0  0  0999 V2000
    3.7500    1.2990    0.0000 O   0  0  0  0  0  0  0  0  0  0  0  0
    3.0000    0.0000    0.0000 C   0  0  0  0  0  0  0  0  0  0  0  0
    3.7500   -1.2990    0.0000 N   0  0  0  0  0  0  0  0  0  0  0  0
    5.2500   -1.2990    0.0000 O   0  0  0  0  0  0  0  0  0  0  0  0
    1.5000    0.0000    0.0000 C   0  0  0  0  0  0  0  0  0  0  0  0
    0.7500   -1.2990    0.0000 C   0  0  0  0  0  0  0  0  0  0  0  0
   -0.7500   -1.2990    0.0000 N   0  0  0  0  0  0  0  0  0  0  0  0
   -1.5000    0.0000    0.0000 C   0  0  0  0  0  0  0  0  0  0  0  0
   -3.0000    0.0000    0.0000 N   0  0  0  0  0  0  0  0  0  0  0  0
   -3.7500    1.2990    0.0000 C   0  0  0  0  0  0  0  0  0  0  0  0
   -5.2500    1.2990    0.0000 C   0  0  0  0  0  0  0  0  0  0  0  0
   -6.0000    2.5981    0.0000 C   0  0  0  0  0  0  0  0  0  0  0  0
   -7.5000    2.5981    0.0000 C   0  0  0  0  0  0  0  0  0  0  0  0
   -8.2500    1.2990    0.0000 N   0  0  0  0  0  0  0  0  0  0  0  0
   -7.5000    0.0000    0.0000 C   0  0  0  0  0  0  0  0  0  0  0  0
   -6.0000    0.0000    0.0000 C   0  0  0  0  0  0  0  0  0  0  0  0
   -0.7500    1.2990    0.0000 N   0  0  0  0  0  0  0  0  0  0  0  0
    0.7500    1.2990    0.0000 C   0  0  0  0  0  0  0  0  0  0  0  0
  1  2  2  0
  2  3  1  0
  3  4  1  0
  2  5  1  0
  5  6  2  0
  6  7  1  0
  7  8  2  0
  8  9  1  0
  9 10  1  0
 10 11  1  0
 11 12  2  0
 12 13  1  0
 13 14  2  0
 14 15  1  0
 15 16  2  0
  8 17  1  0
 17 18  2  0
 18  5  1  0
 16 11  1  0
M  END
>  <molecule_chembl_id>  (739) 
CHEMBL3655946

>  <canonical_smiles>  (739) 
O=C(NO)c1cnc(NCc2ccncc2)nc1

>  <pchembl_value_mean>  (739) 
6.62

>  <document_chembl_id>  (739) 
CHEMBL3639071

$$$$

     RDKit          2D

 35 38  0  0  0  0  0  0  0  0999 V2000
    3.0000    0.0000    0.0000 C   0  0  0  0  0  0  0  0  0  0  0  0
    1.5000    0.0000    0.0000 N   0  0  0  0  0  0  0  0  0  0  0  0
    0.7500   -1.2990    0.0000 C   0  0  0  0  0  0  0  0  0  0  0  0
   -0.7500   -1.2990    0.0000 C   0  0  0  0  0  0  0  0  0  0  0  0
   -1.5000    0.0000    0.0000 C   0  0  0  0  0  0  0  0  0  0  0  0
   -3.0000    0.0000    0.0000 C   0  0  0  0  0  0  0  0  0  0  0  0
   -3.7500   -1.2990    0.0000 O   0  0  0  0  0  0  0  0  0  0  0  0
   -3.7500    1.2990    0.0000 N   0  0  0  0  0  0  0  0  0  0  0  0
   -5.2500    1.2990    0.0000 C   0  0  0  0  0  0  0  0  0  0  0  0
   -6.0000    2.5981    0.0000 C   0  0  0  0  0  0  0  0  0  0  0  0
   -7.5000    2.5981    0.0000 C   0  0  0  0  0  0  0  0  0  0  0  0
   -8.2500    3.8971    0.0000 C   0  0  0  0  0  0  0  0  0  0  0  0
   -9.7500    3.8971    0.0000 C   0  0  0  0  0  0  0  0  0  0  0  0
  -10.5000    5.1962    0.0000 C   0  0  0  0  0  0  0  0  0  0  0  0
  -12.0000    5.1962    0.0000 C   0  0  0  0  0  0  0  0  0  0  0  0
  -12.7500    3.8971    0.0000 O   0  0  0  0  0  0  0  0  0  0  0  0
  -12.7500    6.4952    0.0000 C   0  0  0  0  0  0  0  0  0  0  0  0
  -12.0000    7.7942    0.0000 C   0  0  0  0  0  0  0  0  0  0  0  0
  -12.7500    9.0933    0.0000 C   0  0  0  0  0  0  0  0  0  0  0  0
  -14.2500    9.0933    0.0000 C   0  0  0  0  0  0  0  0  0  0  0  0
  -15.0000    7.7942    0.0000 C   0  0  0  0  0  0  0  0  0  0  0  0
  -14.2500    6.4952    0.0000 N   0  0  0  0  0  0  0  0  0  0  0  0
   -6.0000    0.0000    0.0000 C   0  0  0  0  0  0  0  0  0  0  0  0
   -5.3899   -1.3703    0.0000 N   0  0  0  0  0  0  0  0  0  0  0  0
   -6.5046   -2.3740    0.0000 C   0  0  0  0  0  0  0  0  0  0  0  0
   -7.8037   -1.6240    0.0000 C   0  0  0  0  0  0  0  0  0  0  0  0
   -9.1740   -2.2341    0.0000 C   0  0  0  0  0  0  0  0  0  0  0  0
  -10.3875   -1.3524    0.0000 C   0  0  0  0  0  0  0  0  0  0  0  0
  -11.7578   -1.9625    0.0000 C   0  0  0  0  0  0  0  0  0  0  0  0
  -11.9146   -3.4543    0.0000 C   0  0  0  0  0  0  0  0  0  0  0  0
  -10.7011   -4.3360    0.0000 C   0  0  0  0  0  0  0  0  0  0  0  0
   -9.3308   -3.7259    0.0000 C   0  0  0  0  0  0  0  0  0  0  0  0
   -7.4918   -0.1568    0.0000 N   0  0  0  0  0  0  0  0  0  0  0  0
   -0.7500    1.2990    0.0000 C   0  0  0  0  0  0  0  0  0  0  0  0
    0.7500    1.2990    0.0000 C   0  0  0  0  0  0  0  0  0  0  0  0
  1  2  1  0
  2  3  1  0
  3  4  1  0
  4  5  1  0
  5  6  1  0
  6  7  2  0
  6  8  1  0
  8  9  1  0
  9 10  1  0
 10 11  1  0
 11 12  1  0
 12 13  1  0
 13 14  1  0
 14 15  1  0
 15 16  2  0
 15 17  1  0
 17 18  2  0
 18 19  1  0
 19 20  2  0
 20 21  1  0
 21 22  2  0
  9 23  1  0
 23 24  2  0
 24 25  1  0
 25 26  2  0
 26 27  1  0
 27 28  2  0
 28 29  1  0
 29 30  2  0
 30 31  1  0
 31 32  2  0
 26 33  1  0
  5 34  1  0
 34 35  1  0
 35  2  1  0
 22 17  1  0
 33 23  1  0
 32 27  1  0
M  END
>  <molecule_chembl_id>  (740) 
CHEMBL4649382

>  <canonical_smiles>  (740) 
CN1CCC(C(=O)NC(CCCCCC(=O)c2ccccn2)c2ncc(-c3ccccc3)[nH]2)CC1

>  <pchembl_value_mean>  (740) 
6.62

>  <document_chembl_id>  (740) 
CHEMBL4622967

$$$$

     RDKit          2D

 32 33  0  0  0  0  0  0  0  0999 V2000
    7.2990   -1.8481    0.0000 C   0  0  0  0  0  0  0  0  0  0  0  0
    6.0000   -2.5981    0.0000 C   0  0  0  0  0  0  0  0  0  0  0  0
    4.7010   -3.3481    0.0000 C   0  0  0  0  0  0  0  0  0  0  0  0
    6.7500   -3.8971    0.0000 C   0  0  0  0  0  0  0  0  0  0  0  0
    5.2500   -1.2990    0.0000 O   0  0  0  0  0  0  0  0  0  0  0  0
    3.7500   -1.2990    0.0000 C   0  0  0  0  0  0  0  0  0  0  0  0
    3.0000   -2.5981    0.0000 O   0  0  0  0  0  0  0  0  0  0  0  0
    3.0000    0.0000    0.0000 N   0  0  0  0  0  0  0  0  0  0  0  0
    1.5000    0.0000    0.0000 C   0  0  0  0  0  0  0  0  0  0  0  0
    0.7500   -1.2990    0.0000 C   0  0  0  0  0  0  0  0  0  0  0  0
   -0.7500   -1.2990    0.0000 C   0  0  0  0  0  0  0  0  0  0  0  0
   -1.5000    0.0000    0.0000 C   0  0  0  0  0  0  0  0  0  0  0  0
   -0.7500    1.2990    0.0000 C   0  0  0  0  0  0  0  0  0  0  0  0
   -1.5000    2.5981    0.0000 C   0  0  0  0  0  0  0  0  0  0  0  0
   -2.9918    2.7549    0.0000 C   0  0  0  0  0  0  0  0  0  0  0  0
   -3.3037    4.2221    0.0000 C   0  0  0  0  0  0  0  0  0  0  0  0
   -4.6740    4.8322    0.0000 C   0  0  0  0  0  0  0  0  0  0  0  0
   -5.8875    3.9505    0.0000 O   0  0  0  0  0  0  0  0  0  0  0  0
   -4.8308    6.3240    0.0000 N   0  0  0  0  0  0  0  0  0  0  0  0
   -6.2011    6.9341    0.0000 C   0  0  0  0  0  0  0  0  0  0  0  0
   -6.3579    8.4259    0.0000 C   0  0  0  0  0  0  0  0  0  0  0  0
   -7.7282    9.0360    0.0000 C   0  0  0  0  0  0  0  0  0  0  0  0
   -7.8850   10.5278    0.0000 C   0  0  0  0  0  0  0  0  0  0  0  0
   -9.2553   11.1379    0.0000 C   0  0  0  0  0  0  0  0  0  0  0  0
   -9.4121   12.6296    0.0000 C   0  0  0  0  0  0  0  0  0  0  0  0
  -10.7824   13.2397    0.0000 C   0  0  0  0  0  0  0  0  0  0  0  0
  -11.9959   12.3581    0.0000 O   0  0  0  0  0  0  0  0  0  0  0  0
  -10.9392   14.7315    0.0000 N   0  0  0  0  0  0  0  0  0  0  0  0
  -12.3095   15.3416    0.0000 O   0  0  0  0  0  0  0  0  0  0  0  0
   -2.0046    4.9721    0.0000 N   0  0  0  0  0  0  0  0  0  0  0  0
   -0.8899    3.9684    0.0000 O   0  0  0  0  0  0  0  0  0  0  0  0
    0.7500    1.2990    0.0000 C   0  0  0  0  0  0  0  0  0  0  0  0
  1  2  1  0
  2  3  1  0
  2  4  1  0
  2  5  1  0
  5  6  1  0
  6  7  2  0
  6  8  1  0
  8  9  1  0
  9 10  2  0
 10 11  1  0
 11 12  2  0
 12 13  1  0
 13 14  1  0
 14 15  2  0
 15 16  1  0
 16 17  1  0
 17 18  2  0
 17 19  1  0
 19 20  1  0
 20 21  1  0
 21 22  1  0
 22 23  1  0
 23 24  1  0
 24 25  1  0
 25 26  1  0
 26 27  2  0
 26 28  1  0
 28 29  1  0
 16 30  2  0
 30 31  1  0
 13 32  2  0
 32  9  1  0
 31 14  1  0
M  END
>  <molecule_chembl_id>  (741) 
CHEMBL469274

>  <canonical_smiles>  (741) 
CC(C)(C)OC(=O)Nc1cccc(-c2cc(C(=O)NCCCCCCC(=O)NO)no2)c1

>  <pchembl_value_mean>  (741) 
6.62

>  <document_chembl_id>  (741) 
CHEMBL1155917

$$$$

     RDKit          2D

 30 33  0  0  0  0  0  0  0  0999 V2000
    3.0000    0.0000    0.0000 N   0  0  0  0  0  0  0  0  0  0  0  0
    1.5000    0.0000    0.0000 C   0  0  0  0  0  0  0  0  0  0  0  0
    0.7500   -1.2990    0.0000 C   0  0  0  0  0  0  0  0  0  0  0  0
   -0.7500   -1.2990    0.0000 C   0  0  0  0  0  0  0  0  0  0  0  0
   -1.5000    0.0000    0.0000 C   0  0  0  0  0  0  0  0  0  0  0  0
   -0.7500    1.2990    0.0000 C   0  0  0  0  0  0  0  0  0  0  0  0
    0.7500    1.2990    0.0000 C   0  0  0  0  0  0  0  0  0  0  0  0
    1.5000    2.5981    0.0000 N   0  0  0  0  0  0  0  0  0  0  0  0
    0.7500    3.8971    0.0000 C   0  0  0  0  0  0  0  0  0  0  0  0
   -0.7500    3.8971    0.0000 O   0  0  0  0  0  0  0  0  0  0  0  0
    1.5000    5.1962    0.0000 C   0  0  0  0  0  0  0  0  0  0  0  0
    3.0000    5.1962    0.0000 C   0  0  0  0  0  0  0  0  0  0  0  0
    3.7500    6.4952    0.0000 C   0  0  0  0  0  0  0  0  0  0  0  0
    3.0000    7.7942    0.0000 C   0  0  0  0  0  0  0  0  0  0  0  0
    3.7500    9.0933    0.0000 C   0  0  0  0  0  0  0  0  0  0  0  0
    5.2500    9.0933    0.0000 N   0  0  0  0  0  0  0  0  0  0  0  0
    6.0000   10.3923    0.0000 C   0  0  0  0  0  0  0  0  0  0  0  0
    5.3899   11.7626    0.0000 N   0  0  0  0  0  0  0  0  0  0  0  0
    6.5046   12.7663    0.0000 C   0  0  0  0  0  0  0  0  0  0  0  0
    6.3478   14.2581    0.0000 C   0  0  0  0  0  0  0  0  0  0  0  0
    7.5613   15.1398    0.0000 C   0  0  0  0  0  0  0  0  0  0  0  0
    7.4046   16.6316    0.0000 C   0  0  0  0  0  0  0  0  0  0  0  0
    6.0342   17.2417    0.0000 C   0  0  0  0  0  0  0  0  0  0  0  0
    4.8207   16.3600    0.0000 C   0  0  0  0  0  0  0  0  0  0  0  0
    3.4504   16.9701    0.0000 F   0  0  0  0  0  0  0  0  0  0  0  0
    4.9775   14.8682    0.0000 C   0  0  0  0  0  0  0  0  0  0  0  0
    7.8037   12.0163    0.0000 C   0  0  0  0  0  0  0  0  0  0  0  0
    7.4918   10.5491    0.0000 O   0  0  0  0  0  0  0  0  0  0  0  0
    1.5000    7.7942    0.0000 C   0  0  0  0  0  0  0  0  0  0  0  0
    0.7500    6.4952    0.0000 C   0  0  0  0  0  0  0  0  0  0  0  0
  1  2  1  0
  2  3  2  0
  3  4  1  0
  4  5  2  0
  5  6  1  0
  6  7  2  0
  7  8  1  0
  8  9  1  0
  9 10  2  0
  9 11  1  0
 11 12  2  0
 12 13  1  0
 13 14  2  0
 14 15  1  0
 15 16  1  0
 16 17  1  0
 17 18  2  0
 18 19  1  0
 19 20  1  0
 20 21  2  0
 21 22  1  0
 22 23  2  0
 23 24  1  0
 24 25  1  0
 24 26  2  0
 19 27  1  0
 27 28  1  0
 14 29  1  0
 29 30  2  0
  7  2  1  0
 30 11  1  0
 28 17  1  0
 26 20  1  0
M  END
>  <molecule_chembl_id>  (742) 
CHEMBL3605497

>  <canonical_smiles>  (742) 
Nc1ccccc1NC(=O)c1ccc(CNC2=NC(c3cccc(F)c3)CO2)cc1

>  <pchembl_value_mean>  (742) 
6.62

>  <document_chembl_id>  (742) 
CHEMBL3603817

$$$$

     RDKit          2D

 28 29  0  0  0  0  0  0  0  0999 V2000
    3.0000  -12.9904    0.0000 O   0  0  0  0  0  0  0  0  0  0  0  0
    1.5000  -12.9904    0.0000 C   0  0  0  0  0  0  0  0  0  0  0  0
    0.7500  -11.6913    0.0000 C   0  0  0  0  0  0  0  0  0  0  0  0
    1.5000  -10.3923    0.0000 C   0  0  0  0  0  0  0  0  0  0  0  0
    0.7500   -9.0933    0.0000 C   0  0  0  0  0  0  0  0  0  0  0  0
    1.5000   -7.7942    0.0000 C   0  0  0  0  0  0  0  0  0  0  0  0
    0.7500   -6.4952    0.0000 C   0  0  0  0  0  0  0  0  0  0  0  0
    1.5000   -5.1962    0.0000 C   0  0  0  0  0  0  0  0  0  0  0  0
    3.0000   -5.1962    0.0000 N   0  0  0  0  0  0  0  0  0  0  0  0
    3.7500   -6.4952    0.0000 C   0  0  0  0  0  0  0  0  0  0  0  0
    3.0000   -7.7942    0.0000 O   0  0  0  0  0  0  0  0  0  0  0  0
    5.2500   -6.4952    0.0000 C   0  0  0  0  0  0  0  0  0  0  0  0
    6.1317   -5.2817    0.0000 C   0  0  0  0  0  0  0  0  0  0  0  0
    7.5583   -5.7452    0.0000 C   0  0  0  0  0  0  0  0  0  0  0  0
    7.5583   -7.2452    0.0000 N   0  0  0  0  0  0  0  0  0  0  0  0
    6.1317   -7.7087    0.0000 C   0  0  0  0  0  0  0  0  0  0  0  0
    5.6682   -9.1353    0.0000 O   0  0  0  0  0  0  0  0  0  0  0  0
    0.7500   -3.8971    0.0000 C   0  0  0  0  0  0  0  0  0  0  0  0
   -0.7500   -3.8971    0.0000 O   0  0  0  0  0  0  0  0  0  0  0  0
    1.5000   -2.5981    0.0000 N   0  0  0  0  0  0  0  0  0  0  0  0
    0.7500   -1.2990    0.0000 C   0  0  0  0  0  0  0  0  0  0  0  0
    1.5000    0.0000    0.0000 C   0  0  0  0  0  0  0  0  0  0  0  0
    0.7500    1.2990    0.0000 C   0  0  0  0  0  0  0  0  0  0  0  0
   -0.7500    1.2990    0.0000 C   0  0  0  0  0  0  0  0  0  0  0  0
   -1.5000    0.0000    0.0000 C   0  0  0  0  0  0  0  0  0  0  0  0
   -0.7500   -1.2990    0.0000 C   0  0  0  0  0  0  0  0  0  0  0  0
    0.7500  -14.2894    0.0000 N   0  0  0  0  0  0  0  0  0  0  0  0
    1.5000  -15.5885    0.0000 O   0  0  0  0  0  0  0  0  0  0  0  0
  1  2  2  0
  2  3  1  0
  3  4  1  0
  4  5  1  0
  5  6  1  0
  6  7  1  0
  7  8  1  0
  8  9  1  0
  9 10  1  0
 10 11  2  0
 10 12  1  0
 12 13  1  0
 13 14  1  0
 14 15  1  0
 15 16  1  0
 16 17  2  0
  8 18  1  0
 18 19  2  0
 18 20  1  0
 20 21  1  0
 21 22  2  0
 22 23  1  0
 23 24  2  0
 24 25  1  0
 25 26  2  0
  2 27  1  0
 27 28  1  0
 16 12  1  0
 26 21  1  0
M  END
>  <molecule_chembl_id>  (743) 
CHEMBL3098693

>  <canonical_smiles>  (743) 
O=C(CCCCCC(NC(=O)C1CCNC1=O)C(=O)Nc1ccccc1)NO

>  <pchembl_value_mean>  (743) 
6.62

>  <document_chembl_id>  (743) 
CHEMBL3098008

$$$$

     RDKit          2D

 46 51  0  0  0  0  0  0  0  0999 V2000
    3.0000    0.0000    0.0000 N   0  0  0  0  0  0  0  0  0  0  0  0
    1.5000    0.0000    0.0000 C   0  0  0  0  0  0  0  0  0  0  0  0
    0.7500   -1.2990    0.0000 C   0  0  0  0  0  0  0  0  0  0  0  0
   -0.7500   -1.2990    0.0000 C   0  0  0  0  0  0  0  0  0  0  0  0
   -1.5000    0.0000    0.0000 C   0  0  0  0  0  0  0  0  0  0  0  0
   -0.7500    1.2990    0.0000 C   0  0  0  0  0  0  0  0  0  0  0  0
    0.7500    1.2990    0.0000 C   0  0  0  0  0  0  0  0  0  0  0  0
    1.5000    2.5981    0.0000 N   0  0  0  0  0  0  0  0  0  0  0  0
    0.7500    3.8971    0.0000 C   0  0  0  0  0  0  0  0  0  0  0  0
   -0.7500    3.8971    0.0000 O   0  0  0  0  0  0  0  0  0  0  0  0
    1.5000    5.1962    0.0000 C   0  0  0  0  0  0  0  0  0  0  0  0
    0.7500    6.4952    0.0000 C   0  0  0  0  0  0  0  0  0  0  0  0
    1.5000    7.7942    0.0000 C   0  0  0  0  0  0  0  0  0  0  0  0
    3.0000    7.7942    0.0000 C   0  0  0  0  0  0  0  0  0  0  0  0
    3.7500    9.0933    0.0000 C   0  0  0  0  0  0  0  0  0  0  0  0
    3.0000   10.3923    0.0000 C   0  0  0  0  0  0  0  0  0  0  0  0
    3.7500   11.6913    0.0000 C   0  0  0  0  0  0  0  0  0  0  0  0
    3.0000   12.9904    0.0000 N   0  0  0  0  0  0  0  0  0  0  0  0
    3.7500   14.2894    0.0000 C   0  0  0  0  0  0  0  0  0  0  0  0
    3.0000   15.5885    0.0000 C   0  0  0  0  0  0  0  0  0  0  0  0
    3.7500   16.8875    0.0000 N   0  0  0  0  0  0  0  0  0  0  0  0
    5.2500   16.8875    0.0000 C   0  0  0  0  0  0  0  0  0  0  0  0
    6.0000   18.1865    0.0000 C   0  0  0  0  0  0  0  0  0  0  0  0
    5.2500   19.4856    0.0000 C   0  0  0  0  0  0  0  0  0  0  0  0
    3.7500   19.4856    0.0000 C   0  0  0  0  0  0  0  0  0  0  0  0
    3.0000   18.1865    0.0000 C   0  0  0  0  0  0  0  0  0  0  0  0
    5.2500   11.6913    0.0000 C   0  0  0  0  0  0  0  0  0  0  0  0
    6.0000   10.3923    0.0000 O   0  0  0  0  0  0  0  0  0  0  0  0
    6.0000   12.9904    0.0000 N   0  0  0  0  0  0  0  0  0  0  0  0
    7.5000   12.9904    0.0000 C   0  0  0  0  0  0  0  0  0  0  0  0
    8.2500   11.6913    0.0000 C   0  0  0  0  0  0  0  0  0  0  0  0
    9.7500   11.6913    0.0000 C   0  0  0  0  0  0  0  0  0  0  0  0
   10.5000   12.9904    0.0000 C   0  0  0  0  0  0  0  0  0  0  0  0
   12.0000   12.9904    0.0000 C   0  0  0  0  0  0  0  0  0  0  0  0
   12.7500   11.6913    0.0000 C   0  0  0  0  0  0  0  0  0  0  0  0
   14.2500   11.6913    0.0000 C   0  0  0  0  0  0  0  0  0  0  0  0
   15.0000   12.9904    0.0000 C   0  0  0  0  0  0  0  0  0  0  0  0
   16.5000   12.9904    0.0000 C   0  0  0  0  0  0  0  0  0  0  0  0
   17.7990   13.7404    0.0000 C   0  0  0  0  0  0  0  0  0  0  0  0
   17.7990   12.2404    0.0000 C   0  0  0  0  0  0  0  0  0  0  0  0
   14.2500   14.2894    0.0000 C   0  0  0  0  0  0  0  0  0  0  0  0
   12.7500   14.2894    0.0000 C   0  0  0  0  0  0  0  0  0  0  0  0
    9.7500   14.2894    0.0000 C   0  0  0  0  0  0  0  0  0  0  0  0
    8.2500   14.2894    0.0000 C   0  0  0  0  0  0  0  0  0  0  0  0
    1.5000   10.3923    0.0000 C   0  0  0  0  0  0  0  0  0  0  0  0
    0.7500    9.0933    0.0000 C   0  0  0  0  0  0  0  0  0  0  0  0
  1  2  1  0
  2  3  2  0
  3  4  1  0
  4  5  2  0
  5  6  1  0
  6  7  2  0
  7  8  1  0
  8  9  1  0
  9 10  2  0
  9 11  1  0
 11 12  2  3
 12 13  1  0
 13 14  2  0
 14 15  1  0
 15 16  2  0
 16 17  1  0
 17 18  1  0
 18 19  1  0
 19 20  1  0
 20 21  1  0
 21 22  1  0
 22 23  1  0
 23 24  1  0
 24 25  1  0
 25 26  1  0
 17 27  1  0
 27 28  2  0
 27 29  1  0
 29 30  1  0
 30 31  2  0
 31 32  1  0
 32 33  2  0
 33 34  1  0
 34 35  2  0
 35 36  1  0
 36 37  2  0
 37 38  1  0
 38 39  1  0
 39 40  1  0
 37 41  1  0
 41 42  2  0
 33 43  1  0
 43 44  2  0
 16 45  1  0
 45 46  2  0
  7  2  1  0
 46 13  1  0
 26 21  1  0
 44 30  1  0
 42 34  1  0
 40 38  1  0
M  END
>  <molecule_chembl_id>  (744) 
CHEMBL1643325

>  <canonical_smiles>  (744) 
Nc1ccccc1NC(=O)C=Cc1ccc(C(NCCN2CCCCC2)C(=O)Nc2ccc(-c3ccc(C4CC4)cc3)cc2)cc1

>  <pchembl_value_mean>  (744) 
6.62

>  <document_chembl_id>  (744) 
CHEMBL1641604

$$$$

     RDKit          2D

 19 21  0  0  0  0  0  0  0  0999 V2000
    3.7500    1.2990    0.0000 O   0  0  0  0  0  0  0  0  0  0  0  0
    3.0000    0.0000    0.0000 C   0  0  0  0  0  0  0  0  0  0  0  0
    3.7500   -1.2990    0.0000 N   0  0  0  0  0  0  0  0  0  0  0  0
    5.2500   -1.2990    0.0000 O   0  0  0  0  0  0  0  0  0  0  0  0
    1.5000    0.0000    0.0000 C   0  0  0  0  0  0  0  0  0  0  0  0
    0.7500   -1.2990    0.0000 C   0  0  0  0  0  0  0  0  0  0  0  0
   -0.7500   -1.2990    0.0000 N   0  0  0  0  0  0  0  0  0  0  0  0
   -1.5000    0.0000    0.0000 C   0  0  0  0  0  0  0  0  0  0  0  0
   -3.0000    0.0000    0.0000 N   0  0  0  0  0  0  0  0  0  0  0  0
   -3.7500    1.2990    0.0000 C   0  0  0  0  0  0  0  0  0  0  0  0
   -5.1595    0.7860    0.0000 C   0  0  0  0  0  0  0  0  0  0  0  0
   -6.4031    1.6248    0.0000 C   0  0  0  0  0  0  0  0  0  0  0  0
   -7.5851    0.7013    0.0000 C   0  0  0  0  0  0  0  0  0  0  0  0
   -7.0721   -0.7082    0.0000 C   0  0  0  0  0  0  0  0  0  0  0  0
   -5.5730   -0.6559    0.0000 S   0  0  0  0  0  0  0  0  0  0  0  0
   -4.0105    2.7762    0.0000 C   0  0  0  0  0  0  0  0  0  0  0  0
   -2.6009    2.2632    0.0000 C   0  0  0  0  0  0  0  0  0  0  0  0
   -0.7500    1.2990    0.0000 N   0  0  0  0  0  0  0  0  0  0  0  0
    0.7500    1.2990    0.0000 C   0  0  0  0  0  0  0  0  0  0  0  0
  1  2  2  0
  2  3  1  0
  3  4  1  0
  2  5  1  0
  5  6  2  0
  6  7  1  0
  7  8  2  0
  8  9  1  0
  9 10  1  0
 10 11  1  0
 11 12  2  0
 12 13  1  0
 13 14  2  0
 14 15  1  0
 10 16  1  0
 16 17  1  0
  8 18  1  0
 18 19  2  0
 19  5  1  0
 17 10  1  0
 15 11  1  0
M  END
>  <molecule_chembl_id>  (745) 
CHEMBL3655975

>  <canonical_smiles>  (745) 
O=C(NO)c1cnc(NC2(c3cccs3)CC2)nc1

>  <pchembl_value_mean>  (745) 
6.62

>  <document_chembl_id>  (745) 
CHEMBL3639071

$$$$

     RDKit          2D

 26 26  0  0  0  0  0  0  0  0999 V2000
   12.7500   -3.8971    0.0000 O   0  0  0  0  0  0  0  0  0  0  0  0
   12.0000   -5.1962    0.0000 C   0  0  0  0  0  0  0  0  0  0  0  0
   10.5000   -5.1962    0.0000 C   0  0  0  0  0  0  0  0  0  0  0  0
    9.7500   -3.8971    0.0000 C   0  0  0  0  0  0  0  0  0  0  0  0
    8.2500   -3.8971    0.0000 C   0  0  0  0  0  0  0  0  0  0  0  0
    7.5000   -2.5981    0.0000 C   0  0  0  0  0  0  0  0  0  0  0  0
    6.0000   -2.5981    0.0000 C   0  0  0  0  0  0  0  0  0  0  0  0
    5.2500   -1.2990    0.0000 C   0  0  0  0  0  0  0  0  0  0  0  0
    3.7500   -1.2990    0.0000 C   0  0  0  0  0  0  0  0  0  0  0  0
    3.0000   -2.5981    0.0000 O   0  0  0  0  0  0  0  0  0  0  0  0
    3.0000    0.0000    0.0000 N   0  0  0  0  0  0  0  0  0  0  0  0
    1.5000    0.0000    0.0000 C   0  0  0  0  0  0  0  0  0  0  0  0
    0.7500   -1.2990    0.0000 C   0  0  0  0  0  0  0  0  0  0  0  0
   -0.7500   -1.2990    0.0000 C   0  0  0  0  0  0  0  0  0  0  0  0
   -1.5000    0.0000    0.0000 C   0  0  0  0  0  0  0  0  0  0  0  0
   -3.0000    0.0000    0.0000 N   0  0  0  0  0  0  0  0  0  0  0  0
   -3.7500    1.2990    0.0000 C   0  0  0  0  0  0  0  0  0  0  0  0
   -5.2500    1.2990    0.0000 C   0  0  0  0  0  0  0  0  0  0  0  0
   -6.0000    2.5981    0.0000 Cl  0  0  0  0  0  0  0  0  0  0  0  0
   -3.7500   -1.2990    0.0000 C   0  0  0  0  0  0  0  0  0  0  0  0
   -5.2500   -1.2990    0.0000 C   0  0  0  0  0  0  0  0  0  0  0  0
   -6.0000   -2.5981    0.0000 Cl  0  0  0  0  0  0  0  0  0  0  0  0
   -0.7500    1.2990    0.0000 C   0  0  0  0  0  0  0  0  0  0  0  0
    0.7500    1.2990    0.0000 C   0  0  0  0  0  0  0  0  0  0  0  0
   12.7500   -6.4952    0.0000 N   0  0  0  0  0  0  0  0  0  0  0  0
   14.2500   -6.4952    0.0000 O   0  0  0  0  0  0  0  0  0  0  0  0
  1  2  2  0
  2  3  1  0
  3  4  1  0
  4  5  1  0
  5  6  1  0
  6  7  1  0
  7  8  1  0
  8  9  1  0
  9 10  2  0
  9 11  1  0
 11 12  1  0
 12 13  2  0
 13 14  1  0
 14 15  2  0
 15 16  1  0
 16 17  1  0
 17 18  1  0
 18 19  1  0
 16 20  1  0
 20 21  1  0
 21 22  1  0
 15 23  1  0
 23 24  2  0
  2 25  1  0
 25 26  1  0
 24 12  1  0
M  END
>  <molecule_chembl_id>  (746) 
CHEMBL4205840

>  <canonical_smiles>  (746) 
O=C(CCCCCCC(=O)Nc1ccc(N(CCCl)CCCl)cc1)NO

>  <pchembl_value_mean>  (746) 
6.62

>  <document_chembl_id>  (746) 
CHEMBL4177566

$$$$

     RDKit          2D

 25 27  0  0  0  0  0  0  0  0999 V2000
   -7.5000   -5.1962    0.0000 O   0  0  0  0  0  0  0  0  0  0  0  0
   -6.0000   -5.1962    0.0000 C   0  0  0  0  0  0  0  0  0  0  0  0
   -5.2500   -6.4952    0.0000 N   0  0  0  0  0  0  0  0  0  0  0  0
   -6.0000   -7.7942    0.0000 O   0  0  0  0  0  0  0  0  0  0  0  0
   -5.2500   -3.8971    0.0000 C   0  0  0  0  0  0  0  0  0  0  0  0
   -3.7500   -3.8971    0.0000 C   0  0  0  0  0  0  0  0  0  0  0  0
   -3.0000   -2.5981    0.0000 N   0  0  0  0  0  0  0  0  0  0  0  0
   -3.7500   -1.2990    0.0000 C   0  0  0  0  0  0  0  0  0  0  0  0
   -3.0000    0.0000    0.0000 N   0  0  0  0  0  0  0  0  0  0  0  0
   -3.7500    1.2990    0.0000 C   0  0  0  0  0  0  0  0  0  0  0  0
   -2.3405    1.8121    0.0000 C   0  0  0  0  0  0  0  0  0  0  0  0
   -1.1914    0.8479    0.0000 C   0  0  0  0  0  0  0  0  0  0  0  0
    0.2181    1.3609    0.0000 C   0  0  0  0  0  0  0  0  0  0  0  0
    1.3672    0.3967    0.0000 F   0  0  0  0  0  0  0  0  0  0  0  0
    0.4786    2.8381    0.0000 C   0  0  0  0  0  0  0  0  0  0  0  0
   -0.6704    3.8023    0.0000 C   0  0  0  0  0  0  0  0  0  0  0  0
   -0.4100    5.2795    0.0000 F   0  0  0  0  0  0  0  0  0  0  0  0
   -2.0800    3.2893    0.0000 C   0  0  0  0  0  0  0  0  0  0  0  0
   -4.8991    0.3349    0.0000 C   0  0  0  0  0  0  0  0  0  0  0  0
   -6.3086    0.8479    0.0000 C   0  0  0  0  0  0  0  0  0  0  0  0
   -6.5691    2.3251    0.0000 O   0  0  0  0  0  0  0  0  0  0  0  0
   -5.4200    3.2893    0.0000 C   0  0  0  0  0  0  0  0  0  0  0  0
   -4.0105    2.7762    0.0000 C   0  0  0  0  0  0  0  0  0  0  0  0
   -5.2500   -1.2990    0.0000 N   0  0  0  0  0  0  0  0  0  0  0  0
   -6.0000   -2.5981    0.0000 C   0  0  0  0  0  0  0  0  0  0  0  0
  1  2  2  0
  2  3  1  0
  3  4  1  0
  2  5  1  0
  5  6  2  0
  6  7  1  0
  7  8  2  0
  8  9  1  0
  9 10  1  0
 10 11  1  0
 11 12  2  0
 12 13  1  0
 13 14  1  0
 13 15  2  0
 15 16  1  0
 16 17  1  0
 16 18  2  0
 10 19  1  0
 19 20  1  0
 20 21  1  0
 21 22  1  0
 22 23  1  0
  8 24  1  0
 24 25  2  0
 25  5  1  0
 23 10  1  0
 18 11  1  0
M  END
>  <molecule_chembl_id>  (747) 
CHEMBL3656024

>  <canonical_smiles>  (747) 
O=C(NO)c1cnc(NC2(c3cc(F)cc(F)c3)CCOCC2)nc1

>  <pchembl_value_mean>  (747) 
6.63

>  <document_chembl_id>  (747) 
CHEMBL3639071

$$$$

     RDKit          2D

 37 39  0  0  0  0  0  0  0  0999 V2000
    3.7500   -1.2990    0.0000 C   0  0  0  0  0  0  0  0  0  0  0  0
    3.0000    0.0000    0.0000 O   0  0  0  0  0  0  0  0  0  0  0  0
    1.5000    0.0000    0.0000 C   0  0  0  0  0  0  0  0  0  0  0  0
    0.7500   -1.2990    0.0000 C   0  0  0  0  0  0  0  0  0  0  0  0
   -0.7500   -1.2990    0.0000 C   0  0  0  0  0  0  0  0  0  0  0  0
   -1.5000    0.0000    0.0000 C   0  0  0  0  0  0  0  0  0  0  0  0
   -0.7500    1.2990    0.0000 C   0  0  0  0  0  0  0  0  0  0  0  0
   -1.5000    2.5981    0.0000 N   0  0  0  0  0  0  0  0  0  0  0  0
   -2.9918    2.7549    0.0000 N   0  0  0  0  0  0  0  0  0  0  0  0
   -3.3037    4.2221    0.0000 C   0  0  0  0  0  0  0  0  0  0  0  0
   -4.6740    4.8322    0.0000 C   0  0  0  0  0  0  0  0  0  0  0  0
   -5.8875    3.9505    0.0000 O   0  0  0  0  0  0  0  0  0  0  0  0
   -4.8308    6.3240    0.0000 N   0  0  0  0  0  0  0  0  0  0  0  0
   -6.2011    6.9341    0.0000 C   0  0  0  0  0  0  0  0  0  0  0  0
   -6.3579    8.4259    0.0000 C   0  0  0  0  0  0  0  0  0  0  0  0
   -7.7282    9.0360    0.0000 C   0  0  0  0  0  0  0  0  0  0  0  0
   -7.8850   10.5278    0.0000 C   0  0  0  0  0  0  0  0  0  0  0  0
   -9.2553   11.1379    0.0000 C   0  0  0  0  0  0  0  0  0  0  0  0
   -9.4121   12.6296    0.0000 C   0  0  0  0  0  0  0  0  0  0  0  0
   -8.1986   13.5113    0.0000 O   0  0  0  0  0  0  0  0  0  0  0  0
  -10.7824   13.2397    0.0000 N   0  0  0  0  0  0  0  0  0  0  0  0
  -10.9392   14.7315    0.0000 O   0  0  0  0  0  0  0  0  0  0  0  0
   -2.0046    4.9721    0.0000 N   0  0  0  0  0  0  0  0  0  0  0  0
   -0.8899    3.9684    0.0000 C   0  0  0  0  0  0  0  0  0  0  0  0
    0.5773    4.2803    0.0000 C   0  0  0  0  0  0  0  0  0  0  0  0
    1.5810    3.1655    0.0000 C   0  0  0  0  0  0  0  0  0  0  0  0
    3.0482    3.4774    0.0000 C   0  0  0  0  0  0  0  0  0  0  0  0
    4.0519    2.3627    0.0000 O   0  0  0  0  0  0  0  0  0  0  0  0
    5.5192    2.6746    0.0000 C   0  0  0  0  0  0  0  0  0  0  0  0
    3.5118    4.9040    0.0000 C   0  0  0  0  0  0  0  0  0  0  0  0
    4.9790    5.2159    0.0000 O   0  0  0  0  0  0  0  0  0  0  0  0
    5.4425    6.6424    0.0000 C   0  0  0  0  0  0  0  0  0  0  0  0
    2.5081    6.0187    0.0000 C   0  0  0  0  0  0  0  0  0  0  0  0
    2.9716    7.4453    0.0000 O   0  0  0  0  0  0  0  0  0  0  0  0
    1.9679    8.5600    0.0000 C   0  0  0  0  0  0  0  0  0  0  0  0
    1.0409    5.7068    0.0000 C   0  0  0  0  0  0  0  0  0  0  0  0
    0.7500    1.2990    0.0000 C   0  0  0  0  0  0  0  0  0  0  0  0
  1  2  1  0
  2  3  1  0
  3  4  2  0
  4  5  1  0
  5  6  2  0
  6  7  1  0
  7  8  1  0
  8  9  1  0
  9 10  2  0
 10 11  1  0
 11 12  2  0
 11 13  1  0
 13 14  1  0
 14 15  1  0
 15 16  1  0
 16 17  1  0
 17 18  1  0
 18 19  1  0
 19 20  2  0
 19 21  1  0
 21 22  1  0
 10 23  1  0
 23 24  2  0
 24 25  1  0
 25 26  2  0
 26 27  1  0
 27 28  1  0
 28 29  1  0
 27 30  2  0
 30 31  1  0
 31 32  1  0
 30 33  1  0
 33 34  1  0
 34 35  1  0
 33 36  2  0
  7 37  2  0
 37  3  1  0
 24  8  1  0
 36 25  1  0
M  END
>  <molecule_chembl_id>  (748) 
CHEMBL4168150

>  <canonical_smiles>  (748) 
COc1cccc(-n2nc(C(=O)NCCCCCC(=O)NO)nc2-c2cc(OC)c(OC)c(OC)c2)c1

>  <pchembl_value_mean>  (748) 
6.63

>  <document_chembl_id>  (748) 
CHEMBL4145499

$$$$

     RDKit          2D

 33 35  0  0  0  0  0  0  0  0999 V2000
    6.2976   -8.8783    0.0000 C   0  0  0  0  0  0  0  0  0  0  0  0
    6.1855   -7.3825    0.0000 O   0  0  0  0  0  0  0  0  0  0  0  0
    4.8340   -6.7316    0.0000 C   0  0  0  0  0  0  0  0  0  0  0  0
    3.5947   -7.5766    0.0000 C   0  0  0  0  0  0  0  0  0  0  0  0
    2.1015   -7.2201    0.0000 C   0  0  0  0  0  0  0  0  0  0  0  0
    3.0367   -6.0474    0.0000 C   0  0  0  0  0  0  0  0  0  0  0  0
    3.3705   -4.5850    0.0000 C   0  0  0  0  0  0  0  0  0  0  0  0
    4.7219   -5.2358    0.0000 C   0  0  0  0  0  0  0  0  0  0  0  0
    3.0367   -3.1226    0.0000 C   0  0  0  0  0  0  0  0  0  0  0  0
    2.1015   -1.9499    0.0000 O   0  0  0  0  0  0  0  0  0  0  0  0
    0.7500   -1.2990    0.0000 C   0  0  0  0  0  0  0  0  0  0  0  0
    1.5000    0.0000    0.0000 C   0  0  0  0  0  0  0  0  0  0  0  0
    0.7500    1.2990    0.0000 C   0  0  0  0  0  0  0  0  0  0  0  0
   -0.7500    1.2990    0.0000 C   0  0  0  0  0  0  0  0  0  0  0  0
   -1.5000    0.0000    0.0000 C   0  0  0  0  0  0  0  0  0  0  0  0
   -0.7500   -1.2990    0.0000 C   0  0  0  0  0  0  0  0  0  0  0  0
   -2.1015   -1.9499    0.0000 N   0  0  0  0  0  0  0  0  0  0  0  0
   -3.0367   -3.1226    0.0000 C   0  0  0  0  0  0  0  0  0  0  0  0
   -4.3881   -2.4718    0.0000 O   0  0  0  0  0  0  0  0  0  0  0  0
   -3.3705   -4.5850    0.0000 C   0  0  0  0  0  0  0  0  0  0  0  0
   -4.8705   -4.5850    0.0000 C   0  0  0  0  0  0  0  0  0  0  0  0
   -5.6205   -3.2860    0.0000 C   0  0  0  0  0  0  0  0  0  0  0  0
   -7.1205   -3.2860    0.0000 C   0  0  0  0  0  0  0  0  0  0  0  0
   -7.8705   -1.9869    0.0000 C   0  0  0  0  0  0  0  0  0  0  0  0
   -9.3705   -1.9869    0.0000 C   0  0  0  0  0  0  0  0  0  0  0  0
  -10.1205   -0.6879    0.0000 C   0  0  0  0  0  0  0  0  0  0  0  0
   -9.3705    0.6111    0.0000 O   0  0  0  0  0  0  0  0  0  0  0  0
  -11.6205   -0.6879    0.0000 N   0  0  0  0  0  0  0  0  0  0  0  0
  -12.3705    0.6111    0.0000 O   0  0  0  0  0  0  0  0  0  0  0  0
   -3.0367   -6.0474    0.0000 O   0  0  0  0  0  0  0  0  0  0  0  0
   -2.1015   -7.2201    0.0000 C   0  0  0  0  0  0  0  0  0  0  0  0
   -0.7500   -7.8710    0.0000 C   0  0  0  0  0  0  0  0  0  0  0  0
    0.7500   -7.8710    0.0000 C   0  0  0  0  0  0  0  0  0  0  0  0
  1  2  1  0
  2  3  1  0
  3  4  2  0
  4  5  1  0
  5  6  2  0
  6  7  1  0
  7  8  2  0
  7  9  1  0
  9 10  1  0
 10 11  1  0
 11 12  2  0
 12 13  1  0
 13 14  2  0
 14 15  1  0
 15 16  2  0
 16 17  1  0
 17 18  1  0
 18 19  2  0
 18 20  1  0
 20 21  1  0
 21 22  1  0
 22 23  1  0
 23 24  1  0
 24 25  1  0
 25 26  1  0
 26 27  2  0
 26 28  1  0
 28 29  1  0
 20 30  1  0
 30 31  1  0
 31 32  1  0
 32 33  2  0
  8  3  1  0
 16 11  1  0
 33  5  1  0
M  END
>  <molecule_chembl_id>  (749) 
CHEMBL1631913

>  <canonical_smiles>  (749) 
COc1cc2cc(c1)COc1ccccc1NC(=O)C(CCCCCC(=O)NO)OCC=C2

>  <pchembl_value_mean>  (749) 
6.633333

>  <document_chembl_id>  (749) 
CHEMBL1629537

$$$$

     RDKit          2D

 30 33  0  0  0  0  0  0  0  0999 V2000
    3.0000    0.0000    0.0000 N   0  0  0  0  0  0  0  0  0  0  0  0
    1.5000    0.0000    0.0000 C   0  0  0  0  0  0  0  0  0  0  0  0
    0.7500   -1.2990    0.0000 C   0  0  0  0  0  0  0  0  0  0  0  0
   -0.7500   -1.2990    0.0000 C   0  0  0  0  0  0  0  0  0  0  0  0
   -1.5000    0.0000    0.0000 C   0  0  0  0  0  0  0  0  0  0  0  0
   -0.7500    1.2990    0.0000 C   0  0  0  0  0  0  0  0  0  0  0  0
    0.7500    1.2990    0.0000 C   0  0  0  0  0  0  0  0  0  0  0  0
    1.5000    2.5981    0.0000 N   0  0  0  0  0  0  0  0  0  0  0  0
    0.7500    3.8971    0.0000 C   0  0  0  0  0  0  0  0  0  0  0  0
   -0.7500    3.8971    0.0000 O   0  0  0  0  0  0  0  0  0  0  0  0
    1.5000    5.1962    0.0000 C   0  0  0  0  0  0  0  0  0  0  0  0
    3.0000    5.1962    0.0000 C   0  0  0  0  0  0  0  0  0  0  0  0
    3.7500    6.4952    0.0000 C   0  0  0  0  0  0  0  0  0  0  0  0
    3.0000    7.7942    0.0000 C   0  0  0  0  0  0  0  0  0  0  0  0
    3.7500    9.0933    0.0000 C   0  0  0  0  0  0  0  0  0  0  0  0
    5.2500    9.0933    0.0000 N   0  0  0  0  0  0  0  0  0  0  0  0
    6.0000   10.3923    0.0000 C   0  0  0  0  0  0  0  0  0  0  0  0
    5.3899   11.7626    0.0000 N   0  0  0  0  0  0  0  0  0  0  0  0
    6.5046   12.7663    0.0000 C   0  0  0  0  0  0  0  0  0  0  0  0
    6.3478   14.2581    0.0000 C   0  0  0  0  0  0  0  0  0  0  0  0
    7.5613   15.1398    0.0000 C   0  0  0  0  0  0  0  0  0  0  0  0
    7.4046   16.6316    0.0000 C   0  0  0  0  0  0  0  0  0  0  0  0
    6.0342   17.2417    0.0000 C   0  0  0  0  0  0  0  0  0  0  0  0
    5.8774   18.7335    0.0000 O   0  0  0  0  0  0  0  0  0  0  0  0
    4.8207   16.3600    0.0000 C   0  0  0  0  0  0  0  0  0  0  0  0
    4.9775   14.8682    0.0000 C   0  0  0  0  0  0  0  0  0  0  0  0
    7.8037   12.0163    0.0000 C   0  0  0  0  0  0  0  0  0  0  0  0
    7.4918   10.5491    0.0000 O   0  0  0  0  0  0  0  0  0  0  0  0
    1.5000    7.7942    0.0000 C   0  0  0  0  0  0  0  0  0  0  0  0
    0.7500    6.4952    0.0000 C   0  0  0  0  0  0  0  0  0  0  0  0
  1  2  1  0
  2  3  2  0
  3  4  1  0
  4  5  2  0
  5  6  1  0
  6  7  2  0
  7  8  1  0
  8  9  1  0
  9 10  2  0
  9 11  1  0
 11 12  2  0
 12 13  1  0
 13 14  2  0
 14 15  1  0
 15 16  1  0
 16 17  1  0
 17 18  2  0
 18 19  1  0
 19 20  1  0
 20 21  2  0
 21 22  1  0
 22 23  2  0
 23 24  1  0
 23 25  1  0
 25 26  2  0
 19 27  1  0
 27 28  1  0
 14 29  1  0
 29 30  2  0
  7  2  1  0
 30 11  1  0
 28 17  1  0
 26 20  1  0
M  END
>  <molecule_chembl_id>  (750) 
CHEMBL3605499

>  <canonical_smiles>  (750) 
Nc1ccccc1NC(=O)c1ccc(CNC2=NC(c3ccc(O)cc3)CO2)cc1

>  <pchembl_value_mean>  (750) 
6.64

>  <document_chembl_id>  (750) 
CHEMBL3603817

$$$$

     RDKit          2D

 37 40  0  0  0  0  0  0  0  0999 V2000
   14.7990   -8.5442    0.0000 C   0  0  0  0  0  0  0  0  0  0  0  0
   13.2990   -8.5442    0.0000 C   0  0  0  0  0  0  0  0  0  0  0  0
   12.5490   -7.2452    0.0000 C   0  0  0  0  0  0  0  0  0  0  0  0
   13.2990   -5.9462    0.0000 O   0  0  0  0  0  0  0  0  0  0  0  0
   11.0490   -7.2452    0.0000 C   0  0  0  0  0  0  0  0  0  0  0  0
   10.2990   -5.9462    0.0000 C   0  0  0  0  0  0  0  0  0  0  0  0
    8.7990   -5.9462    0.0000 C   0  0  0  0  0  0  0  0  0  0  0  0
    8.0490   -4.6471    0.0000 C   0  0  0  0  0  0  0  0  0  0  0  0
    6.5490   -4.6471    0.0000 C   0  0  0  0  0  0  0  0  0  0  0  0
    5.7990   -3.3481    0.0000 C   0  0  0  0  0  0  0  0  0  0  0  0
    4.2990   -3.3481    0.0000 N   0  0  0  0  0  0  0  0  0  0  0  0
    3.5490   -2.0490    0.0000 C   0  0  0  0  0  0  0  0  0  0  0  0
    4.2990   -0.7500    0.0000 O   0  0  0  0  0  0  0  0  0  0  0  0
    2.0490   -2.0490    0.0000 C   0  0  0  0  0  0  0  0  0  0  0  0
    0.7500   -2.7990    0.0000 C   0  0  0  0  0  0  0  0  0  0  0  0
    0.7500   -1.2990    0.0000 C   0  0  0  0  0  0  0  0  0  0  0  0
    1.5000    0.0000    0.0000 C   0  0  0  0  0  0  0  0  0  0  0  0
    0.7500    1.2990    0.0000 C   0  0  0  0  0  0  0  0  0  0  0  0
   -0.7500    1.2990    0.0000 N   0  0  0  0  0  0  0  0  0  0  0  0
   -1.5000    2.5981    0.0000 C   0  0  0  0  0  0  0  0  0  0  0  0
   -1.5000    0.0000    0.0000 C   0  0  0  0  0  0  0  0  0  0  0  0
   -0.7500   -1.2990    0.0000 C   0  0  0  0  0  0  0  0  0  0  0  0
    6.5490   -2.0490    0.0000 C   0  0  0  0  0  0  0  0  0  0  0  0
    5.9389   -0.6787    0.0000 N   0  0  0  0  0  0  0  0  0  0  0  0
    7.0537    0.3250    0.0000 C   0  0  0  0  0  0  0  0  0  0  0  0
    6.8969    1.8168    0.0000 C   0  0  0  0  0  0  0  0  0  0  0  0
    8.1104    2.6984    0.0000 C   0  0  0  0  0  0  0  0  0  0  0  0
    7.9536    4.1902    0.0000 C   0  0  0  0  0  0  0  0  0  0  0  0
    6.5833    4.8003    0.0000 C   0  0  0  0  0  0  0  0  0  0  0  0
    5.3697    3.9186    0.0000 N   0  0  0  0  0  0  0  0  0  0  0  0
    5.5265    2.4269    0.0000 C   0  0  0  0  0  0  0  0  0  0  0  0
    4.3130    1.5452    0.0000 O   0  0  0  0  0  0  0  0  0  0  0  0
    2.9427    2.1553    0.0000 C   0  0  0  0  0  0  0  0  0  0  0  0
    8.3527   -0.4250    0.0000 N   0  0  0  0  0  0  0  0  0  0  0  0
    8.0408   -1.8922    0.0000 C   0  0  0  0  0  0  0  0  0  0  0  0
    9.0445   -3.0070    0.0000 C   0  0  0  0  0  0  0  0  0  0  0  0
   10.0482   -4.1217    0.0000 N   0  0  0  0  0  0  0  0  0  0  0  0
  1  2  1  0
  2  3  1  0
  3  4  2  0
  3  5  1  0
  5  6  1  0
  6  7  1  0
  7  8  1  0
  8  9  1  0
  9 10  1  0
 10 11  1  0
 11 12  1  0
 12 13  2  0
 12 14  1  0
 14 15  1  0
 15 16  1  0
 16 17  1  0
 17 18  1  0
 18 19  1  0
 19 20  1  0
 19 21  1  0
 21 22  1  0
 10 23  1  0
 23 24  1  0
 24 25  1  0
 25 26  1  0
 26 27  2  0
 27 28  1  0
 28 29  2  0
 29 30  1  0
 30 31  2  0
 31 32  1  0
 32 33  1  0
 25 34  2  0
 34 35  1  0
 35 36  1  0
 36 37  3  0
 16 14  1  0
 35 23  2  0
 22 16  1  0
 31 26  1  0
M  END
>  <molecule_chembl_id>  (751) 
CHEMBL4750027

>  <canonical_smiles>  (751) 
CCC(=O)CCCCCC(NC(=O)C1CC12CCN(C)CC2)c1[nH]c(-c2cccnc2OC)nc1C#N

>  <pchembl_value_mean>  (751) 
6.64

>  <document_chembl_id>  (751) 
CHEMBL4665726

$$$$

     RDKit          2D

 24 25  0  0  0  0  0  0  0  0999 V2000
   10.4688  -10.2562    0.0000 O   0  0  0  0  0  0  0  0  0  0  0  0
    9.2553  -11.1379    0.0000 C   0  0  0  0  0  0  0  0  0  0  0  0
    7.8850  -10.5278    0.0000 C   0  0  0  0  0  0  0  0  0  0  0  0
    7.7282   -9.0360    0.0000 C   0  0  0  0  0  0  0  0  0  0  0  0
    6.3579   -8.4259    0.0000 C   0  0  0  0  0  0  0  0  0  0  0  0
    6.2011   -6.9341    0.0000 C   0  0  0  0  0  0  0  0  0  0  0  0
    4.8308   -6.3240    0.0000 C   0  0  0  0  0  0  0  0  0  0  0  0
    4.6740   -4.8322    0.0000 C   0  0  0  0  0  0  0  0  0  0  0  0
    3.3037   -4.2221    0.0000 C   0  0  0  0  0  0  0  0  0  0  0  0
    2.9918   -2.7549    0.0000 N   0  0  0  0  0  0  0  0  0  0  0  0
    1.5000   -2.5981    0.0000 C   0  0  0  0  0  0  0  0  0  0  0  0
    0.7500   -1.2990    0.0000 C   0  0  0  0  0  0  0  0  0  0  0  0
    1.5000    0.0000    0.0000 C   0  0  0  0  0  0  0  0  0  0  0  0
    0.7500    1.2990    0.0000 C   0  0  0  0  0  0  0  0  0  0  0  0
   -0.7500    1.2990    0.0000 C   0  0  0  0  0  0  0  0  0  0  0  0
   -1.5000    2.5981    0.0000 N   0  0  0  0  0  4  0  0  0  0  0  0
   -3.0000    2.5981    0.0000 O   0  0  0  0  0  0  0  0  0  0  0  0
   -0.7500    3.8971    0.0000 O   0  0  0  0  0  1  0  0  0  0  0  0
   -1.5000    0.0000    0.0000 C   0  0  0  0  0  0  0  0  0  0  0  0
   -0.7500   -1.2990    0.0000 C   0  0  0  0  0  0  0  0  0  0  0  0
    0.8899   -3.9684    0.0000 N   0  0  0  0  0  0  0  0  0  0  0  0
    2.0046   -4.9721    0.0000 O   0  0  0  0  0  0  0  0  0  0  0  0
    9.4121  -12.6296    0.0000 N   0  0  0  0  0  0  0  0  0  0  0  0
   10.7824  -13.2397    0.0000 O   0  0  0  0  0  0  0  0  0  0  0  0
  1  2  2  0
  2  3  1  0
  3  4  1  0
  4  5  1  0
  5  6  1  0
  6  7  1  0
  7  8  1  0
  8  9  1  0
  9 10  2  0
 10 11  1  0
 11 12  1  0
 12 13  2  0
 13 14  1  0
 14 15  2  0
 15 16  1  0
 16 17  2  0
 16 18  1  0
 15 19  1  0
 19 20  2  0
 11 21  2  0
 21 22  1  0
  2 23  1  0
 23 24  1  0
 22  9  1  0
 20 12  1  0
M  CHG  2  16   1  18  -1
M  END
>  <molecule_chembl_id>  (752) 
CHEMBL3585965

>  <canonical_smiles>  (752) 
O=C(CCCCCCc1nc(-c2ccc([N+](=O)[O-])cc2)no1)NO

>  <pchembl_value_mean>  (752) 
6.64

>  <document_chembl_id>  (752) 
CHEMBL3585316

$$$$

     RDKit          2D

 37 41  0  0  0  0  0  0  0  0999 V2000
    3.0000    0.0000    0.0000 N   0  0  0  0  0  0  0  0  0  0  0  0
    1.5000    0.0000    0.0000 C   0  0  0  0  0  0  0  0  0  0  0  0
    0.7500   -1.2990    0.0000 N   0  0  0  0  0  0  0  0  0  0  0  0
   -0.7500   -1.2990    0.0000 C   0  0  0  0  0  0  0  0  0  0  0  0
   -1.5000    0.0000    0.0000 N   0  0  0  0  0  0  0  0  0  0  0  0
   -0.7500    1.2990    0.0000 C   0  0  0  0  0  0  0  0  0  0  0  0
    0.7500    1.2990    0.0000 C   0  0  0  0  0  0  0  0  0  0  0  0
    1.2135    2.7256    0.0000 C   0  0  0  0  0  0  0  0  0  0  0  0
    2.6401    3.1891    0.0000 C   0  0  0  0  0  0  0  0  0  0  0  0
    3.7548    2.1855    0.0000 C   0  0  0  0  0  0  0  0  0  0  0  0
    5.1814    2.6490    0.0000 C   0  0  0  0  0  0  0  0  0  0  0  0
    5.4933    4.1162    0.0000 C   0  0  0  0  0  0  0  0  0  0  0  0
    6.9199    4.5797    0.0000 Cl  0  0  0  0  0  0  0  0  0  0  0  0
    4.3786    5.1199    0.0000 C   0  0  0  0  0  0  0  0  0  0  0  0
    2.9520    4.6564    0.0000 C   0  0  0  0  0  0  0  0  0  0  0  0
   -0.0000    3.6073    0.0000 N   0  0  0  0  0  0  0  0  0  0  0  0
   -1.2135    2.7256    0.0000 N   0  0  0  0  0  0  0  0  0  0  0  0
   -2.6401    3.1891    0.0000 C   0  0  0  0  0  0  0  0  0  0  0  0
   -2.9520    4.6564    0.0000 C   0  0  0  0  0  0  0  0  0  0  0  0
   -4.3786    5.1199    0.0000 C   0  0  0  0  0  0  0  0  0  0  0  0
   -5.4933    4.1162    0.0000 C   0  0  0  0  0  0  0  0  0  0  0  0
   -5.1814    2.6490    0.0000 C   0  0  0  0  0  0  0  0  0  0  0  0
   -6.2961    1.6453    0.0000 C   0  0  0  0  0  0  0  0  0  0  0  0
   -6.1393    0.1535    0.0000 C   0  0  0  0  0  0  0  0  0  0  0  0
   -7.5097   -0.4566    0.0000 N   0  0  0  0  0  0  0  0  0  0  0  0
   -8.5134    0.6581    0.0000 N   0  0  0  0  0  0  0  0  0  0  0  0
   -7.7634    1.9571    0.0000 N   0  0  0  0  0  0  0  0  0  0  0  0
   -8.3735    3.3275    0.0000 C   0  0  0  0  0  0  0  0  0  0  0  0
   -9.8652    3.4843    0.0000 C   0  0  0  0  0  0  0  0  0  0  0  0
  -10.4753    4.8546    0.0000 C   0  0  0  0  0  0  0  0  0  0  0  0
  -11.9671    5.0114    0.0000 C   0  0  0  0  0  0  0  0  0  0  0  0
  -12.5772    6.3817    0.0000 C   0  0  0  0  0  0  0  0  0  0  0  0
  -14.0690    6.5385    0.0000 C   0  0  0  0  0  0  0  0  0  0  0  0
  -14.9507    5.3250    0.0000 O   0  0  0  0  0  0  0  0  0  0  0  0
  -14.6791    7.9088    0.0000 N   0  0  0  0  0  0  0  0  0  0  0  0
  -16.1709    8.0656    0.0000 O   0  0  0  0  0  0  0  0  0  0  0  0
   -3.7548    2.1855    0.0000 C   0  0  0  0  0  0  0  0  0  0  0  0
  1  2  1  0
  2  3  2  0
  3  4  1  0
  4  5  2  0
  5  6  1  0
  6  7  2  0
  7  8  1  0
  8  9  1  0
  9 10  2  0
 10 11  1  0
 11 12  2  0
 12 13  1  0
 12 14  1  0
 14 15  2  0
  8 16  2  0
 16 17  1  0
 17 18  1  0
 18 19  2  0
 19 20  1  0
 20 21  2  0
 21 22  1  0
 22 23  1  0
 23 24  2  0
 24 25  1  0
 25 26  2  0
 26 27  1  0
 27 28  1  0
 28 29  1  0
 29 30  1  0
 30 31  1  0
 31 32  1  0
 32 33  1  0
 33 34  2  0
 33 35  1  0
 35 36  1  0
 22 37  2  0
  7  2  1  0
 15  9  1  0
 37 18  1  0
 17  6  1  0
 27 23  1  0
M  END
>  <molecule_chembl_id>  (753) 
CHEMBL2408778

>  <canonical_smiles>  (753) 
Nc1ncnc2c1c(-c1ccc(Cl)cc1)nn2-c1cccc(-c2cnnn2CCCCCC(=O)NO)c1

>  <pchembl_value_mean>  (753) 
6.64

>  <document_chembl_id>  (753) 
CHEMBL2406958

$$$$

     RDKit          2D

 30 34  0  0  0  0  0  0  0  0999 V2000
    3.7500   -3.8971    0.0000 N   0  0  0  0  0  0  0  0  0  0  0  0
    3.0000   -5.1962    0.0000 C   0  0  0  0  0  0  0  0  0  0  0  0
    3.7500   -6.4952    0.0000 C   0  0  0  0  0  0  0  0  0  0  0  0
    3.0000   -7.7942    0.0000 C   0  0  0  0  0  0  0  0  0  0  0  0
    3.7500   -9.0933    0.0000 F   0  0  0  0  0  0  0  0  0  0  0  0
    1.5000   -7.7942    0.0000 C   0  0  0  0  0  0  0  0  0  0  0  0
    0.7500   -6.4952    0.0000 C   0  0  0  0  0  0  0  0  0  0  0  0
    1.5000   -5.1962    0.0000 C   0  0  0  0  0  0  0  0  0  0  0  0
    0.7500   -3.8971    0.0000 N   0  0  0  0  0  0  0  0  0  0  0  0
    1.5000   -2.5981    0.0000 C   0  0  0  0  0  0  0  0  0  0  0  0
    3.0000   -2.5981    0.0000 O   0  0  0  0  0  0  0  0  0  0  0  0
    0.7500   -1.2990    0.0000 C   0  0  0  0  0  0  0  0  0  0  0  0
    1.5000    0.0000    0.0000 C   0  0  0  0  0  0  0  0  0  0  0  0
    0.7500    1.2990    0.0000 C   0  0  0  0  0  0  0  0  0  0  0  0
    1.5000    2.5981    0.0000 C   0  0  0  0  0  0  0  0  0  0  0  0
    0.7500    3.8971    0.0000 C   0  0  0  0  0  0  0  0  0  0  0  0
   -0.7500    3.8971    0.0000 C   0  0  0  0  0  0  0  0  0  0  0  0
   -1.5000    5.1962    0.0000 N   0  0  0  0  0  0  0  0  0  0  0  0
   -0.7500    6.4952    0.0000 C   0  0  0  0  0  0  0  0  0  0  0  0
   -1.5000    7.7942    0.0000 C   0  0  0  0  0  0  0  0  0  0  0  0
   -3.0000    7.7942    0.0000 N   0  0  0  0  0  0  0  0  0  0  0  0
   -3.7500    6.4952    0.0000 C   0  0  0  0  0  0  0  0  0  0  0  0
   -3.0000    5.1962    0.0000 C   0  0  0  0  0  0  0  0  0  0  0  0
   -1.5000    2.5981    0.0000 C   0  0  0  0  0  0  0  0  0  0  0  0
   -3.0000    2.5981    0.0000 C   0  0  0  0  0  0  0  0  0  0  0  0
   -4.2990    1.8481    0.0000 C   0  0  0  0  0  0  0  0  0  0  0  0
   -4.2990    3.3481    0.0000 C   0  0  0  0  0  0  0  0  0  0  0  0
   -0.7500    1.2990    0.0000 C   0  0  0  0  0  0  0  0  0  0  0  0
   -1.5000    0.0000    0.0000 C   0  0  0  0  0  0  0  0  0  0  0  0
   -0.7500   -1.2990    0.0000 N   0  0  0  0  0  0  0  0  0  0  0  0
  1  2  1  0
  2  3  2  0
  3  4  1  0
  4  5  1  0
  4  6  2  0
  6  7  1  0
  7  8  2  0
  8  9  1  0
  9 10  1  0
 10 11  2  0
 10 12  1  0
 12 13  2  0
 13 14  1  0
 14 15  2  0
 15 16  1  0
 16 17  2  0
 17 18  1  0
 18 19  1  0
 19 20  1  0
 20 21  1  0
 21 22  1  0
 22 23  1  0
 17 24  1  0
 24 25  1  0
 25 26  1  0
 26 27  1  0
 24 28  2  0
 28 29  1  0
 29 30  2  0
  8  2  1  0
 30 12  1  0
 28 14  1  0
 23 18  1  0
 27 25  1  0
M  END
>  <molecule_chembl_id>  (754) 
CHEMBL3664033

>  <canonical_smiles>  (754) 
Nc1cc(F)ccc1NC(=O)c1cc2ccc(N3CCNCC3)c(C3CC3)c2cn1

>  <pchembl_value_mean>  (754) 
6.64

>  <document_chembl_id>  (754) 
CHEMBL3639382

$$$$

     RDKit          2D

 19 20  0  0  0  0  0  0  0  0999 V2000
    3.7500    1.2990    0.0000 O   0  0  0  0  0  0  0  0  0  0  0  0
    3.0000    0.0000    0.0000 C   0  0  0  0  0  0  0  0  0  0  0  0
    3.7500   -1.2990    0.0000 N   0  0  0  0  0  0  0  0  0  0  0  0
    5.2500   -1.2990    0.0000 O   0  0  0  0  0  0  0  0  0  0  0  0
    1.5000    0.0000    0.0000 C   0  0  0  0  0  0  0  0  0  0  0  0
    0.7500   -1.2990    0.0000 C   0  0  0  0  0  0  0  0  0  0  0  0
   -0.7500   -1.2990    0.0000 N   0  0  0  0  0  0  0  0  0  0  0  0
   -1.5000    0.0000    0.0000 C   0  0  0  0  0  0  0  0  0  0  0  0
   -3.0000    0.0000    0.0000 N   0  0  0  0  0  0  0  0  0  0  0  0
   -3.7500    1.2990    0.0000 C   0  0  0  0  0  0  0  0  0  0  0  0
   -5.2500    1.2990    0.0000 C   0  0  0  0  0  0  0  0  0  0  0  0
   -6.0000    2.5981    0.0000 C   0  0  0  0  0  0  0  0  0  0  0  0
   -7.5000    2.5981    0.0000 C   0  0  0  0  0  0  0  0  0  0  0  0
   -8.2500    1.2990    0.0000 C   0  0  0  0  0  0  0  0  0  0  0  0
   -7.5000    0.0000    0.0000 C   0  0  0  0  0  0  0  0  0  0  0  0
   -6.0000    0.0000    0.0000 C   0  0  0  0  0  0  0  0  0  0  0  0
   -5.2500   -1.2990    0.0000 Cl  0  0  0  0  0  0  0  0  0  0  0  0
   -0.7500    1.2990    0.0000 N   0  0  0  0  0  0  0  0  0  0  0  0
    0.7500    1.2990    0.0000 C   0  0  0  0  0  0  0  0  0  0  0  0
  1  2  2  0
  2  3  1  0
  3  4  1  0
  2  5  1  0
  5  6  2  0
  6  7  1  0
  7  8  2  0
  8  9  1  0
  9 10  1  0
 10 11  1  0
 11 12  2  0
 12 13  1  0
 13 14  2  0
 14 15  1  0
 15 16  2  0
 16 17  1  0
  8 18  1  0
 18 19  2  0
 19  5  1  0
 16 11  1  0
M  END
>  <molecule_chembl_id>  (755) 
CHEMBL3655916

>  <canonical_smiles>  (755) 
O=C(NO)c1cnc(NCc2ccccc2Cl)nc1

>  <pchembl_value_mean>  (755) 
6.65

>  <document_chembl_id>  (755) 
CHEMBL3639071

$$$$

     RDKit          2D

 37 41  0  0  0  0  0  0  0  0999 V2000
   -1.3700  -16.2174    0.0000 N   0  0  0  0  0  0  0  0  0  0  0  0
   -2.7404  -16.8275    0.0000 C   0  0  0  0  0  0  0  0  0  0  0  0
   -2.8972  -18.3193    0.0000 C   0  0  0  0  0  0  0  0  0  0  0  0
   -4.2675  -18.9294    0.0000 C   0  0  0  0  0  0  0  0  0  0  0  0
   -5.4810  -18.0477    0.0000 C   0  0  0  0  0  0  0  0  0  0  0  0
   -5.3242  -16.5560    0.0000 C   0  0  0  0  0  0  0  0  0  0  0  0
   -3.9539  -15.9458    0.0000 C   0  0  0  0  0  0  0  0  0  0  0  0
   -3.7971  -14.4541    0.0000 N   0  0  0  0  0  0  0  0  0  0  0  0
   -2.4268  -13.8440    0.0000 C   0  0  0  0  0  0  0  0  0  0  0  0
   -1.2133  -14.7256    0.0000 O   0  0  0  0  0  0  0  0  0  0  0  0
   -2.2700  -12.3522    0.0000 C   0  0  0  0  0  0  0  0  0  0  0  0
   -0.8997  -11.7421    0.0000 C   0  0  0  0  0  0  0  0  0  0  0  0
   -0.7429  -10.2503    0.0000 C   0  0  0  0  0  0  0  0  0  0  0  0
   -1.9564   -9.3686    0.0000 C   0  0  0  0  0  0  0  0  0  0  0  0
   -1.7996   -7.8768    0.0000 C   0  0  0  0  0  0  0  0  0  0  0  0
   -0.4293   -7.2667    0.0000 N   0  0  0  0  0  0  0  0  0  0  0  0
   -0.2725   -5.7749    0.0000 C   0  0  0  0  0  0  0  0  0  0  0  0
   -1.4860   -4.8933    0.0000 O   0  0  0  0  0  0  0  0  0  0  0  0
    1.0978   -5.1648    0.0000 C   0  0  0  0  0  0  0  0  0  0  0  0
    1.2546   -3.6731    0.0000 N   0  0  0  0  0  0  0  0  0  0  0  0
    0.1399   -2.6694    0.0000 C   0  0  0  0  0  0  0  0  0  0  0  0
   -1.3273   -2.9812    0.0000 O   0  0  0  0  0  0  0  0  0  0  0  0
    0.7500   -1.2990    0.0000 C   0  0  0  0  0  0  0  0  0  0  0  0
    1.5000    0.0000    0.0000 O   0  0  0  0  0  0  0  0  0  0  0  0
    0.7500    1.2990    0.0000 C   0  0  0  0  0  0  0  0  0  0  0  0
   -0.7500    1.2990    0.0000 C   0  0  0  0  0  0  0  0  0  0  0  0
   -1.5000    0.0000    0.0000 C   0  0  0  0  0  0  0  0  0  0  0  0
   -0.7500   -1.2990    0.0000 O   0  0  0  0  0  0  0  0  0  0  0  0
    2.2418   -1.4558    0.0000 C   0  0  0  0  0  0  0  0  0  0  0  0
    3.3565   -0.4521    0.0000 C   0  0  0  0  0  0  0  0  0  0  0  0
    4.7831   -0.9157    0.0000 C   0  0  0  0  0  0  0  0  0  0  0  0
    5.8978    0.0880    0.0000 Cl  0  0  0  0  0  0  0  0  0  0  0  0
    5.0950   -2.3829    0.0000 C   0  0  0  0  0  0  0  0  0  0  0  0
    3.9802   -3.3866    0.0000 C   0  0  0  0  0  0  0  0  0  0  0  0
    2.5537   -2.9231    0.0000 C   0  0  0  0  0  0  0  0  0  0  0  0
   -3.3267   -9.9787    0.0000 C   0  0  0  0  0  0  0  0  0  0  0  0
   -3.4835  -11.4705    0.0000 C   0  0  0  0  0  0  0  0  0  0  0  0
  1  2  1  0
  2  3  2  0
  3  4  1  0
  4  5  2  0
  5  6  1  0
  6  7  2  0
  7  8  1  0
  8  9  1  0
  9 10  2  0
  9 11  1  0
 11 12  2  0
 12 13  1  0
 13 14  2  0
 14 15  1  0
 15 16  1  0
 16 17  1  0
 17 18  2  0
 17 19  1  0
 19 20  1  0
 20 21  1  0
 21 22  2  0
 21 23  1  0
 23 24  1  0
 24 25  1  0
 25 26  1  0
 26 27  1  0
 27 28  1  0
 23 29  1  0
 29 30  2  0
 30 31  1  0
 31 32  1  0
 31 33  2  0
 33 34  1  0
 34 35  2  0
 14 36  1  0
 36 37  2  0
  7  2  1  0
 37 11  1  0
 35 20  1  0
 28 23  1  0
 35 29  1  0
M  END
>  <molecule_chembl_id>  (756) 
CHEMBL4090313

>  <canonical_smiles>  (756) 
Nc1ccccc1NC(=O)c1ccc(CNC(=O)CN2C(=O)C3(OCCCO3)c3cc(Cl)ccc32)cc1

>  <pchembl_value_mean>  (756) 
6.65

>  <document_chembl_id>  (756) 
CHEMBL4033688

$$$$

     RDKit          2D

 32 34  0  0  0  0  0  0  0  0999 V2000
   -0.1540    7.7563    0.0000 C   0  0  0  0  0  0  0  0  0  0  0  0
   -1.6317    7.4989    0.0000 C   0  0  0  0  0  0  0  0  0  0  0  0
   -2.5935    8.6499    0.0000 C   0  0  0  0  0  0  0  0  0  0  0  0
   -2.1476    6.0904    0.0000 C   0  0  0  0  0  0  0  0  0  0  0  0
   -0.8579    5.3245    0.0000 N   0  0  0  0  0  0  0  0  0  0  0  0
    0.0680    4.1443    0.0000 C   0  0  0  0  0  0  0  0  0  0  0  0
    1.3982    4.8376    0.0000 O   0  0  0  0  0  0  0  0  0  0  0  0
    0.5051    2.7094    0.0000 C   0  0  0  0  0  0  0  0  0  0  0  0
    0.3943    1.2135    0.0000 N   0  0  0  0  0  0  0  0  0  0  0  0
    1.2760    0.0000    0.0000 N   0  0  0  0  0  0  0  0  0  0  0  0
    0.3943   -1.2135    0.0000 N   0  0  0  0  0  0  0  0  0  0  0  0
   -1.0323   -0.7500    0.0000 C   0  0  0  0  0  0  0  0  0  0  0  0
   -1.0323    0.7500    0.0000 N   0  0  0  0  0  0  0  0  0  0  0  0
   -2.7275   -1.7398    0.0000 C   0  0  0  0  0  0  0  0  0  0  0  0
   -3.4208   -3.0700    0.0000 C   0  0  0  0  0  0  0  0  0  0  0  0
   -4.9001   -2.8216    0.0000 S   0  0  0  0  0  0  0  0  0  0  0  0
   -5.6357   -1.2516    0.0000 C   0  0  0  0  0  0  0  0  0  0  0  0
   -4.2272   -1.7675    0.0000 N   0  0  0  0  0  0  0  0  0  0  0  0
   -6.7627   -0.2617    0.0000 C   0  0  0  0  0  0  0  0  0  0  0  0
   -7.4560    1.0684    0.0000 N   0  0  0  0  0  0  0  0  0  0  0  0
   -7.6220    2.5592    0.0000 C   0  0  0  0  0  0  0  0  0  0  0  0
   -9.1179    2.6700    0.0000 O   0  0  0  0  0  0  0  0  0  0  0  0
   -7.2382    4.0093    0.0000 C   0  0  0  0  0  0  0  0  0  0  0  0
   -6.3566    5.2228    0.0000 C   0  0  0  0  0  0  0  0  0  0  0  0
   -7.3874    6.3125    0.0000 C   0  0  0  0  0  0  0  0  0  0  0  0
   -6.9592    7.7500    0.0000 C   0  0  0  0  0  0  0  0  0  0  0  0
   -7.9900    8.8397    0.0000 C   0  0  0  0  0  0  0  0  0  0  0  0
   -7.5618   10.2773    0.0000 C   0  0  0  0  0  0  0  0  0  0  0  0
   -8.5926   11.3669    0.0000 S   0  0  0  0  0  0  0  0  0  0  0  0
   -5.0960    6.0359    0.0000 O   0  0  0  0  0  0  0  0  0  0  0  0
   -3.6269    6.3387    0.0000 C   0  0  0  0  0  0  0  0  0  0  0  0
   -3.6546    7.8385    0.0000 O   0  0  0  0  0  0  0  0  0  0  0  0
  1  2  1  0
  2  3  1  0
  2  4  1  0
  4  5  1  0
  5  6  1  0
  6  7  2  0
  6  8  1  0
  8  9  1  0
  9 10  1  0
 10 11  2  0
 11 12  1  0
 12 13  2  0
 12 14  1  0
 14 15  2  0
 15 16  1  0
 16 17  1  0
 17 18  2  0
 17 19  1  0
 19 20  1  0
 20 21  1  0
 21 22  2  0
 21 23  1  0
 23 24  1  0
 24 25  1  0
 25 26  2  3
 26 27  1  0
 27 28  1  0
 28 29  1  0
 24 30  1  0
 30 31  1  0
 31 32  2  0
 31  4  1  0
 13  9  1  0
 18 14  1  0
M  END
>  <molecule_chembl_id>  (757) 
CHEMBL2323286

>  <canonical_smiles>  (757) 
CC(C)C1NC(=O)Cn2nnc(n2)-c2csc(n2)CNC(=O)CC(C=CCCS)OC1=O

>  <pchembl_value_mean>  (757) 
6.65

>  <document_chembl_id>  (757) 
CHEMBL2321647

$$$$

     RDKit          2D

 26 28  0  0  0  0  0  0  0  0999 V2000
   -7.7484   -7.0799    0.0000 O   0  0  0  0  0  0  0  0  0  0  0  0
   -7.5917   -5.5881    0.0000 C   0  0  0  0  0  0  0  0  0  0  0  0
   -6.2213   -4.9780    0.0000 C   0  0  0  0  0  0  0  0  0  0  0  0
   -5.0078   -5.8597    0.0000 C   0  0  0  0  0  0  0  0  0  0  0  0
   -3.6375   -5.2496    0.0000 C   0  0  0  0  0  0  0  0  0  0  0  0
   -2.4240   -6.1312    0.0000 C   0  0  0  0  0  0  0  0  0  0  0  0
   -1.0537   -5.5211    0.0000 C   0  0  0  0  0  0  0  0  0  0  0  0
    0.2454   -6.2711    0.0000 C   0  0  0  0  0  0  0  0  0  0  0  0
    1.3601   -5.2674    0.0000 C   0  0  0  0  0  0  0  0  0  0  0  0
    0.7500   -3.8971    0.0000 N   0  0  0  0  0  0  0  0  0  0  0  0
    1.5000   -2.5981    0.0000 C   0  0  0  0  0  0  0  0  0  0  0  0
    0.7500   -1.2990    0.0000 C   0  0  0  0  0  0  0  0  0  0  0  0
    1.5000    0.0000    0.0000 C   0  0  0  0  0  0  0  0  0  0  0  0
    0.7500    1.2990    0.0000 C   0  0  0  0  0  0  0  0  0  0  0  0
   -0.7500    1.2990    0.0000 C   0  0  0  0  0  0  0  0  0  0  0  0
   -1.5000    2.5981    0.0000 C   0  0  0  0  0  0  0  0  0  0  0  0
   -0.7500    3.8971    0.0000 C   0  0  0  0  0  0  0  0  0  0  0  0
   -1.5000    5.1962    0.0000 C   0  0  0  0  0  0  0  0  0  0  0  0
   -3.0000    5.1962    0.0000 C   0  0  0  0  0  0  0  0  0  0  0  0
   -3.7500    3.8971    0.0000 C   0  0  0  0  0  0  0  0  0  0  0  0
   -3.0000    2.5981    0.0000 C   0  0  0  0  0  0  0  0  0  0  0  0
   -1.5000    0.0000    0.0000 C   0  0  0  0  0  0  0  0  0  0  0  0
   -0.7500   -1.2990    0.0000 C   0  0  0  0  0  0  0  0  0  0  0  0
   -0.7418   -4.0539    0.0000 N   0  0  0  0  0  0  0  0  0  0  0  0
   -8.8052   -4.7064    0.0000 N   0  0  0  0  0  0  0  0  0  0  0  0
  -10.1755   -5.3165    0.0000 O   0  0  0  0  0  0  0  0  0  0  0  0
  1  2  2  0
  2  3  1  0
  3  4  1  0
  4  5  1  0
  5  6  1  0
  6  7  1  0
  7  8  1  0
  8  9  2  0
  9 10  1  0
 10 11  1  0
 11 12  1  0
 12 13  2  0
 13 14  1  0
 14 15  2  0
 15 16  1  0
 16 17  2  0
 17 18  1  0
 18 19  2  0
 19 20  1  0
 20 21  2  0
 15 22  1  0
 22 23  2  0
 10 24  1  0
  2 25  1  0
 25 26  1  0
 24  7  2  0
 23 12  1  0
 21 16  1  0
M  END
>  <molecule_chembl_id>  (758) 
CHEMBL3335300

>  <canonical_smiles>  (758) 
O=C(CCCCc1ccn(Cc2ccc(-c3ccccc3)cc2)n1)NO

>  <pchembl_value_mean>  (758) 
6.65

>  <document_chembl_id>  (758) 
CHEMBL3352093

$$$$

     RDKit          2D

 21 22  0  0  0  0  0  0  0  0999 V2000
    5.8875   -3.9505    0.0000 O   0  0  0  0  0  0  0  0  0  0  0  0
    4.6740   -4.8322    0.0000 C   0  0  0  0  0  0  0  0  0  0  0  0
    4.8308   -6.3240    0.0000 N   0  0  0  0  0  0  0  0  0  0  0  0
    6.2011   -6.9341    0.0000 C   0  0  0  0  0  0  0  0  0  0  0  0
    6.3579   -8.4259    0.0000 C   0  0  0  0  0  0  0  0  0  0  0  0
    7.7282   -9.0360    0.0000 C   0  0  0  0  0  0  0  0  0  0  0  0
    7.8850  -10.5278    0.0000 C   0  0  0  0  0  0  0  0  0  0  0  0
    9.2553  -11.1379    0.0000 C   0  0  0  0  0  0  0  0  0  0  0  0
    9.4121  -12.6296    0.0000 C   0  0  0  0  0  0  0  0  0  0  0  0
   10.7824  -13.2397    0.0000 S   0  0  0  0  0  0  0  0  0  0  0  0
    3.3037   -4.2221    0.0000 C   0  0  0  0  0  0  0  0  0  0  0  0
    2.9918   -2.7549    0.0000 C   0  0  0  0  0  0  0  0  0  0  0  0
    1.5000   -2.5981    0.0000 C   0  0  0  0  0  0  0  0  0  0  0  0
    0.7500   -1.2990    0.0000 C   0  0  0  0  0  0  0  0  0  0  0  0
    1.5000    0.0000    0.0000 C   0  0  0  0  0  0  0  0  0  0  0  0
    0.7500    1.2990    0.0000 C   0  0  0  0  0  0  0  0  0  0  0  0
   -0.7500    1.2990    0.0000 C   0  0  0  0  0  0  0  0  0  0  0  0
   -1.5000    0.0000    0.0000 N   0  0  0  0  0  0  0  0  0  0  0  0
   -0.7500   -1.2990    0.0000 C   0  0  0  0  0  0  0  0  0  0  0  0
    0.8899   -3.9684    0.0000 N   0  0  0  0  0  0  0  0  0  0  0  0
    2.0046   -4.9721    0.0000 N   0  0  0  0  0  0  0  0  0  0  0  0
  1  2  2  0
  2  3  1  0
  3  4  1  0
  4  5  1  0
  5  6  1  0
  6  7  1  0
  7  8  1  0
  8  9  1  0
  9 10  1  0
  2 11  1  0
 11 12  2  0
 12 13  1  0
 13 14  1  0
 14 15  2  0
 15 16  1  0
 16 17  2  0
 17 18  1  0
 18 19  2  0
 13 20  2  0
 20 21  1  0
 21 11  1  0
 19 14  1  0
M  END
>  <molecule_chembl_id>  (759) 
CHEMBL3758882

>  <canonical_smiles>  (759) 
O=C(NCCCCCCS)c1cc(-c2cccnc2)n[nH]1

>  <pchembl_value_mean>  (759) 
6.66

>  <document_chembl_id>  (759) 
CHEMBL3758091

$$$$

     RDKit          2D

 42 46  0  0  0  0  0  0  0  0999 V2000
    1.9979  -12.6093    0.0000 C   0  0  0  0  0  0  0  0  0  0  0  0
    2.3097  -11.1421    0.0000 O   0  0  0  0  0  0  0  0  0  0  0  0
    1.1950  -10.1384    0.0000 C   0  0  0  0  0  0  0  0  0  0  0  0
   -0.2316  -10.6019    0.0000 C   0  0  0  0  0  0  0  0  0  0  0  0
   -1.3463   -9.5982    0.0000 C   0  0  0  0  0  0  0  0  0  0  0  0
   -1.0344   -8.1310    0.0000 C   0  0  0  0  0  0  0  0  0  0  0  0
   -2.1491   -7.1273    0.0000 C   0  0  0  0  0  0  0  0  0  0  0  0
   -3.5757   -7.5908    0.0000 O   0  0  0  0  0  0  0  0  0  0  0  0
   -1.8373   -5.6601    0.0000 N   0  0  0  0  0  0  0  0  0  0  0  0
   -2.9520   -4.6564    0.0000 C   0  0  0  0  0  0  0  0  0  0  0  0
   -4.3786   -5.1199    0.0000 C   0  0  0  0  0  0  0  0  0  0  0  0
   -4.6904   -6.5871    0.0000 O   0  0  0  0  0  0  0  0  0  0  0  0
   -6.1170   -7.0506    0.0000 C   0  0  0  0  0  0  0  0  0  0  0  0
   -7.2317   -6.0469    0.0000 C   0  0  0  0  0  0  0  0  0  0  0  0
   -8.6583   -6.5105    0.0000 C   0  0  0  0  0  0  0  0  0  0  0  0
   -8.9702   -7.9777    0.0000 C   0  0  0  0  0  0  0  0  0  0  0  0
  -10.3968   -8.4412    0.0000 C   0  0  0  0  0  0  0  0  0  0  0  0
  -11.5115   -7.4375    0.0000 C   0  0  0  0  0  0  0  0  0  0  0  0
  -12.9381   -7.9010    0.0000 C   0  0  0  0  0  0  0  0  0  0  0  0
  -13.2499   -9.3683    0.0000 O   0  0  0  0  0  0  0  0  0  0  0  0
  -14.0528   -6.8974    0.0000 N   0  0  0  0  0  0  0  0  0  0  0  0
  -15.4794   -7.3609    0.0000 C   0  0  0  0  0  0  0  0  0  0  0  0
  -16.5941   -6.3572    0.0000 C   0  0  0  0  0  0  0  0  0  0  0  0
  -18.0207   -6.8207    0.0000 C   0  0  0  0  0  0  0  0  0  0  0  0
  -18.3325   -8.2879    0.0000 C   0  0  0  0  0  0  0  0  0  0  0  0
  -17.2178   -9.2916    0.0000 C   0  0  0  0  0  0  0  0  0  0  0  0
  -15.7912   -8.8281    0.0000 C   0  0  0  0  0  0  0  0  0  0  0  0
  -14.6765   -9.8318    0.0000 N   0  0  0  0  0  0  0  0  0  0  0  0
   -7.8555   -8.9814    0.0000 C   0  0  0  0  0  0  0  0  0  0  0  0
   -6.4289   -8.5179    0.0000 C   0  0  0  0  0  0  0  0  0  0  0  0
   -2.6401   -3.1891    0.0000 C   0  0  0  0  0  0  0  0  0  0  0  0
   -1.2135   -2.7256    0.0000 C   0  0  0  0  0  0  0  0  0  0  0  0
   -0.0000   -3.6073    0.0000 C   0  0  0  0  0  0  0  0  0  0  0  0
    1.2135   -2.7256    0.0000 N   0  0  0  0  0  0  0  0  0  0  0  0
    0.7500   -1.2990    0.0000 C   0  0  0  0  0  0  0  0  0  0  0  0
    1.5000    0.0000    0.0000 C   0  0  0  0  0  0  0  0  0  0  0  0
    0.7500    1.2990    0.0000 C   0  0  0  0  0  0  0  0  0  0  0  0
   -0.7500    1.2990    0.0000 C   0  0  0  0  0  0  0  0  0  0  0  0
   -1.5000    0.0000    0.0000 C   0  0  0  0  0  0  0  0  0  0  0  0
   -0.7500   -1.2990    0.0000 C   0  0  0  0  0  0  0  0  0  0  0  0
    0.3922   -7.6675    0.0000 C   0  0  0  0  0  0  0  0  0  0  0  0
    1.5069   -8.6712    0.0000 C   0  0  0  0  0  0  0  0  0  0  0  0
  1  2  1  0
  2  3  1  0
  3  4  2  0
  4  5  1  0
  5  6  2  0
  6  7  1  0
  7  8  2  0
  7  9  1  0
  9 10  1  0
 10 11  1  0
 11 12  1  0
 12 13  1  0
 13 14  2  0
 14 15  1  0
 15 16  2  0
 16 17  1  0
 17 18  2  3
 18 19  1  0
 19 20  2  0
 19 21  1  0
 21 22  1  0
 22 23  2  0
 23 24  1  0
 24 25  2  0
 25 26  1  0
 26 27  2  0
 27 28  1  0
 16 29  1  0
 29 30  2  0
 10 31  1  0
 31 32  1  0
 32 33  2  0
 33 34  1  0
 34 35  1  0
 35 36  2  0
 36 37  1  0
 37 38  2  0
 38 39  1  0
 39 40  2  0
  6 41  1  0
 41 42  2  0
 42  3  1  0
 30 13  1  0
 40 32  1  0
 27 22  1  0
 40 35  1  0
M  END
>  <molecule_chembl_id>  (760) 
CHEMBL4098136

>  <canonical_smiles>  (760) 
COc1ccc(C(=O)NC(COc2ccc(C=CC(=O)Nc3ccccc3N)cc2)Cc2c[nH]c3ccccc23)cc1

>  <pchembl_value_mean>  (760) 
6.66

>  <document_chembl_id>  (760) 
CHEMBL4020724

$$$$

     RDKit          2D

 20 21  0  0  0  0  0  0  0  0999 V2000
    6.0000    0.0000    0.0000 O   0  0  0  0  0  0  0  0  0  0  0  0
    5.2500   -1.2990    0.0000 C   0  0  0  0  0  0  0  0  0  0  0  0
    3.7500   -1.2990    0.0000 C   0  0  0  0  0  0  0  0  0  0  0  0
    3.0000    0.0000    0.0000 C   0  0  0  0  0  0  0  0  0  0  0  0
    1.5000    0.0000    0.0000 C   0  0  0  0  0  0  0  0  0  0  0  0
    0.7500   -1.2990    0.0000 C   0  0  0  0  0  0  0  0  0  0  0  0
   -0.7500   -1.2990    0.0000 C   0  0  0  0  0  0  0  0  0  0  0  0
   -1.5000    0.0000    0.0000 C   0  0  0  0  0  0  0  0  0  0  0  0
   -3.0000    0.0000    0.0000 C   0  0  0  0  0  0  0  0  0  0  0  0
   -3.7500    1.2990    0.0000 C   0  0  0  0  0  0  0  0  0  0  0  0
   -5.2500    1.2990    0.0000 C   0  0  0  0  0  0  0  0  0  0  0  0
   -6.0000    0.0000    0.0000 C   0  0  0  0  0  0  0  0  0  0  0  0
   -7.5000    0.0000    0.0000 C   0  0  0  0  0  0  0  0  0  0  0  0
   -8.2500    1.2990    0.0000 O   0  0  0  0  0  0  0  0  0  0  0  0
   -5.2500   -1.2990    0.0000 C   0  0  0  0  0  0  0  0  0  0  0  0
   -3.7500   -1.2990    0.0000 C   0  0  0  0  0  0  0  0  0  0  0  0
   -0.7500    1.2990    0.0000 C   0  0  0  0  0  0  0  0  0  0  0  0
    0.7500    1.2990    0.0000 C   0  0  0  0  0  0  0  0  0  0  0  0
    6.0000   -2.5981    0.0000 N   0  0  0  0  0  0  0  0  0  0  0  0
    7.5000   -2.5981    0.0000 O   0  0  0  0  0  0  0  0  0  0  0  0
  1  2  2  0
  2  3  1  0
  3  4  2  3
  4  5  1  0
  5  6  2  0
  6  7  1  0
  7  8  2  0
  8  9  1  0
  9 10  2  0
 10 11  1  0
 11 12  2  0
 12 13  1  0
 13 14  1  0
 12 15  1  0
 15 16  2  0
  8 17  1  0
 17 18  2  0
  2 19  1  0
 19 20  1  0
 18  5  1  0
 16  9  1  0
M  END
>  <molecule_chembl_id>  (761) 
CHEMBL551486

>  <canonical_smiles>  (761) 
O=C(C=Cc1ccc(-c2ccc(CO)cc2)cc1)NO

>  <pchembl_value_mean>  (761) 
6.66

>  <document_chembl_id>  (761) 
CHEMBL1158371

$$$$

     RDKit          2D

 23 26  0  0  0  0  0  0  0  0999 V2000
    3.0000    0.0000    0.0000 N   0  0  0  0  0  0  0  0  0  0  0  0
    1.5000    0.0000    0.0000 C   0  0  0  0  0  0  0  0  0  0  0  0
    0.7500   -1.2990    0.0000 C   0  0  0  0  0  0  0  0  0  0  0  0
   -0.7500   -1.2990    0.0000 C   0  0  0  0  0  0  0  0  0  0  0  0
   -1.5000    0.0000    0.0000 C   0  0  0  0  0  0  0  0  0  0  0  0
   -3.0000    0.0000    0.0000 C   0  0  0  0  0  0  0  0  0  0  0  0
   -3.7500    1.2990    0.0000 C   0  0  0  0  0  0  0  0  0  0  0  0
   -5.2500    1.2990    0.0000 C   0  0  0  0  0  0  0  0  0  0  0  0
   -6.0000    0.0000    0.0000 C   0  0  0  0  0  0  0  0  0  0  0  0
   -7.5000    0.0000    0.0000 F   0  0  0  0  0  0  0  0  0  0  0  0
   -5.2500   -1.2990    0.0000 C   0  0  0  0  0  0  0  0  0  0  0  0
   -3.7500   -1.2990    0.0000 C   0  0  0  0  0  0  0  0  0  0  0  0
   -0.7500    1.2990    0.0000 C   0  0  0  0  0  0  0  0  0  0  0  0
    0.7500    1.2990    0.0000 C   0  0  0  0  0  0  0  0  0  0  0  0
    1.5000    2.5981    0.0000 N   0  0  0  0  0  0  0  0  0  0  0  0
    0.7500    3.8971    0.0000 C   0  0  0  0  0  0  0  0  0  0  0  0
   -0.7500    3.8971    0.0000 O   0  0  0  0  0  0  0  0  0  0  0  0
    1.5000    5.1962    0.0000 C   0  0  0  0  0  0  0  0  0  0  0  0
    1.5000    6.6962    0.0000 C   0  0  0  0  0  0  0  0  0  0  0  0
    1.8119    8.1634    0.0000 C   0  0  0  0  0  0  0  0  0  0  0  0
    3.3037    8.3202    0.0000 O   0  0  0  0  0  0  0  0  0  0  0  0
    3.9138    6.9498    0.0000 C   0  0  0  0  0  0  0  0  0  0  0  0
    2.7990    5.9462    0.0000 C   0  0  0  0  0  0  0  0  0  0  0  0
  1  2  1  0
  2  3  2  0
  3  4  1  0
  4  5  2  0
  5  6  1  0
  6  7  2  0
  7  8  1  0
  8  9  2  0
  9 10  1  0
  9 11  1  0
 11 12  2  0
  5 13  1  0
 13 14  2  0
 14 15  1  0
 15 16  1  0
 16 17  2  0
 16 18  1  0
 18 19  1  0
 19 20  1  0
 20 21  1  0
 21 22  1  0
 22 23  1  0
 14  2  1  0
 23 18  1  0
 12  6  1  0
 23 19  1  0
M  END
>  <molecule_chembl_id>  (762) 
CHEMBL3827262

>  <canonical_smiles>  (762) 
Nc1ccc(-c2ccc(F)cc2)cc1NC(=O)C1C2COCC21

>  <pchembl_value_mean>  (762) 
6.66

>  <document_chembl_id>  (762) 
CHEMBL3826926

$$$$

     RDKit          2D

 35 38  0  0  0  0  0  0  0  0999 V2000
    4.6740   -7.4303    0.0000 C   0  0  0  0  0  0  0  0  0  0  0  0
    3.3037   -6.8202    0.0000 N   0  0  0  0  0  0  0  0  0  0  0  0
    2.9918   -5.3529    0.0000 C   0  0  0  0  0  0  0  0  0  0  0  0
    1.5000   -5.1962    0.0000 C   0  0  0  0  0  0  0  0  0  0  0  0
    0.7500   -3.8971    0.0000 C   0  0  0  0  0  0  0  0  0  0  0  0
   -0.7500   -3.8971    0.0000 O   0  0  0  0  0  0  0  0  0  0  0  0
    1.5000   -2.5981    0.0000 N   0  0  0  0  0  0  0  0  0  0  0  0
    0.7500   -1.2990    0.0000 C   0  0  0  0  0  0  0  0  0  0  0  0
    1.5000    0.0000    0.0000 C   0  0  0  0  0  0  0  0  0  0  0  0
    0.7500    1.2990    0.0000 C   0  0  0  0  0  0  0  0  0  0  0  0
   -0.7500    1.2990    0.0000 C   0  0  0  0  0  0  0  0  0  0  0  0
   -1.5000    2.5981    0.0000 Cl  0  0  0  0  0  0  0  0  0  0  0  0
   -1.5000    0.0000    0.0000 C   0  0  0  0  0  0  0  0  0  0  0  0
   -0.7500   -1.2990    0.0000 C   0  0  0  0  0  0  0  0  0  0  0  0
    0.8899   -6.5665    0.0000 C   0  0  0  0  0  0  0  0  0  0  0  0
   -0.5773   -6.8783    0.0000 C   0  0  0  0  0  0  0  0  0  0  0  0
   -1.5810   -5.7636    0.0000 C   0  0  0  0  0  0  0  0  0  0  0  0
   -3.0482   -6.0755    0.0000 C   0  0  0  0  0  0  0  0  0  0  0  0
   -3.5118   -7.5021    0.0000 C   0  0  0  0  0  0  0  0  0  0  0  0
   -4.9790   -7.8139    0.0000 C   0  0  0  0  0  0  0  0  0  0  0  0
   -5.9827   -6.6992    0.0000 C   0  0  0  0  0  0  0  0  0  0  0  0
   -7.4499   -7.0111    0.0000 C   0  0  0  0  0  0  0  0  0  0  0  0
   -7.9134   -8.4377    0.0000 O   0  0  0  0  0  0  0  0  0  0  0  0
   -8.4536   -5.8964    0.0000 N   0  0  0  0  0  0  0  0  0  0  0  0
   -9.9208   -6.2082    0.0000 C   0  0  0  0  0  0  0  0  0  0  0  0
  -10.9245   -5.0935    0.0000 C   0  0  0  0  0  0  0  0  0  0  0  0
  -12.3917   -5.4054    0.0000 C   0  0  0  0  0  0  0  0  0  0  0  0
  -12.8553   -6.8320    0.0000 C   0  0  0  0  0  0  0  0  0  0  0  0
  -11.8516   -7.9467    0.0000 C   0  0  0  0  0  0  0  0  0  0  0  0
  -10.3844   -7.6348    0.0000 C   0  0  0  0  0  0  0  0  0  0  0  0
   -9.3807   -8.7495    0.0000 N   0  0  0  0  0  0  0  0  0  0  0  0
   -2.5081   -8.6168    0.0000 C   0  0  0  0  0  0  0  0  0  0  0  0
   -1.0409   -8.3049    0.0000 C   0  0  0  0  0  0  0  0  0  0  0  0
   -0.0372   -9.4196    0.0000 F   0  0  0  0  0  0  0  0  0  0  0  0
    2.0046   -7.5702    0.0000 C   0  0  0  0  0  0  0  0  0  0  0  0
  1  2  1  0
  2  3  1  0
  3  4  1  0
  4  5  1  0
  5  6  2  0
  5  7  1  0
  7  8  1  0
  8  9  2  0
  9 10  1  0
 10 11  2  0
 11 12  1  0
 11 13  1  0
 13 14  2  0
  4 15  1  0
 15 16  1  0
 16 17  2  0
 17 18  1  0
 18 19  2  0
 19 20  1  0
 20 21  2  3
 21 22  1  0
 22 23  2  0
 22 24  1  0
 24 25  1  0
 25 26  2  0
 26 27  1  0
 27 28  2  0
 28 29  1  0
 29 30  2  0
 30 31  1  0
 19 32  1  0
 32 33  2  0
 33 34  1  0
 15 35  1  0
 35  2  1  0
 14  8  1  0
 33 16  1  0
 30 25  1  0
M  END
>  <molecule_chembl_id>  (763) 
CHEMBL2177582

>  <canonical_smiles>  (763) 
CN1CC(C(=O)Nc2ccc(Cl)cc2)C(c2ccc(C=CC(=O)Nc3ccccc3N)cc2F)C1

>  <pchembl_value_mean>  (763) 
6.66

>  <document_chembl_id>  (763) 
CHEMBL2177000

$$$$

     RDKit          2D

 31 32  0  0  0  0  0  0  0  0999 V2000
   10.7824  -13.2397    0.0000 C   0  0  0  0  0  0  0  0  0  0  0  0
    9.4121  -12.6296    0.0000 C   0  0  0  0  0  0  0  0  0  0  0  0
    9.2553  -11.1379    0.0000 C   0  0  0  0  0  0  0  0  0  0  0  0
   10.4688  -10.2562    0.0000 O   0  0  0  0  0  0  0  0  0  0  0  0
    7.8850  -10.5278    0.0000 C   0  0  0  0  0  0  0  0  0  0  0  0
    7.7282   -9.0360    0.0000 C   0  0  0  0  0  0  0  0  0  0  0  0
    6.3579   -8.4259    0.0000 C   0  0  0  0  0  0  0  0  0  0  0  0
    6.2011   -6.9341    0.0000 C   0  0  0  0  0  0  0  0  0  0  0  0
    4.8308   -6.3240    0.0000 C   0  0  0  0  0  0  0  0  0  0  0  0
    4.6740   -4.8322    0.0000 C   0  0  0  0  0  0  0  0  0  0  0  0
    5.8875   -3.9505    0.0000 N   0  0  0  0  0  0  0  0  0  0  0  0
    7.2578   -4.5606    0.0000 C   0  0  0  0  0  0  0  0  0  0  0  0
    7.4146   -6.0524    0.0000 O   0  0  0  0  0  0  0  0  0  0  0  0
    8.4713   -3.6789    0.0000 C   0  0  0  0  0  0  0  0  0  0  0  0
    9.8417   -4.2890    0.0000 N   0  0  0  0  0  0  0  0  0  0  0  0
   11.0552   -3.4074    0.0000 C   0  0  0  0  0  0  0  0  0  0  0  0
    9.9984   -5.7808    0.0000 C   0  0  0  0  0  0  0  0  0  0  0  0
    3.3037   -4.2221    0.0000 C   0  0  0  0  0  0  0  0  0  0  0  0
    2.9918   -2.7549    0.0000 N   0  0  0  0  0  0  0  0  0  0  0  0
    1.5000   -2.5981    0.0000 C   0  0  0  0  0  0  0  0  0  0  0  0
    0.7500   -1.2990    0.0000 C   0  0  0  0  0  0  0  0  0  0  0  0
    1.5000    0.0000    0.0000 C   0  0  0  0  0  0  0  0  0  0  0  0
    0.7500    1.2990    0.0000 C   0  0  0  0  0  0  0  0  0  0  0  0
   -0.7500    1.2990    0.0000 C   0  0  0  0  0  0  0  0  0  0  0  0
   -1.5000    2.5981    0.0000 F   0  0  0  0  0  0  0  0  0  0  0  0
   -1.5000    0.0000    0.0000 C   0  0  0  0  0  0  0  0  0  0  0  0
   -0.7500   -1.2990    0.0000 C   0  0  0  0  0  0  0  0  0  0  0  0
    0.8899   -3.9684    0.0000 N   0  0  0  0  0  0  0  0  0  0  0  0
    2.0046   -4.9721    0.0000 C   0  0  0  0  0  0  0  0  0  0  0  0
    1.8478   -6.4639    0.0000 C   0  0  0  0  0  0  0  0  0  0  0  0
    1.6910   -7.9557    0.0000 N   0  0  0  0  0  0  0  0  0  0  0  0
  1  2  1  0
  2  3  1  0
  3  4  2  0
  3  5  1  0
  5  6  1  0
  6  7  1  0
  7  8  1  0
  8  9  1  0
  9 10  1  0
 10 11  1  0
 11 12  1  0
 12 13  2  0
 12 14  1  0
 14 15  1  0
 15 16  1  0
 15 17  1  0
 10 18  1  0
 18 19  1  0
 19 20  1  0
 20 21  1  0
 21 22  2  0
 22 23  1  0
 23 24  2  0
 24 25  1  0
 24 26  1  0
 26 27  2  0
 20 28  2  0
 28 29  1  0
 29 30  1  0
 30 31  3  0
 29 18  2  0
 27 21  1  0
M  END
>  <molecule_chembl_id>  (764) 
CHEMBL4756752

>  <canonical_smiles>  (764) 
CCC(=O)CCCCCC(NC(=O)CN(C)C)c1[nH]c(-c2ccc(F)cc2)nc1C#N

>  <pchembl_value_mean>  (764) 
6.66

>  <document_chembl_id>  (764) 
CHEMBL4665726

$$$$

     RDKit          2D

 29 33  0  0  0  0  0  0  0  0999 V2000
    3.7500   -3.8971    0.0000 N   0  0  0  0  0  0  0  0  0  0  0  0
    3.0000   -5.1962    0.0000 C   0  0  0  0  0  0  0  0  0  0  0  0
    3.7500   -6.4952    0.0000 C   0  0  0  0  0  0  0  0  0  0  0  0
    3.0000   -7.7942    0.0000 C   0  0  0  0  0  0  0  0  0  0  0  0
    1.5000   -7.7942    0.0000 C   0  0  0  0  0  0  0  0  0  0  0  0
    0.7500   -6.4952    0.0000 C   0  0  0  0  0  0  0  0  0  0  0  0
    1.5000   -5.1962    0.0000 C   0  0  0  0  0  0  0  0  0  0  0  0
    0.7500   -3.8971    0.0000 N   0  0  0  0  0  0  0  0  0  0  0  0
    1.5000   -2.5981    0.0000 C   0  0  0  0  0  0  0  0  0  0  0  0
    3.0000   -2.5981    0.0000 O   0  0  0  0  0  0  0  0  0  0  0  0
    0.7500   -1.2990    0.0000 C   0  0  0  0  0  0  0  0  0  0  0  0
    1.5000    0.0000    0.0000 C   0  0  0  0  0  0  0  0  0  0  0  0
    0.7500    1.2990    0.0000 C   0  0  0  0  0  0  0  0  0  0  0  0
    1.5000    2.5981    0.0000 C   0  0  0  0  0  0  0  0  0  0  0  0
    0.7500    3.8971    0.0000 C   0  0  0  0  0  0  0  0  0  0  0  0
   -0.7500    3.8971    0.0000 C   0  0  0  0  0  0  0  0  0  0  0  0
   -1.5000    5.1962    0.0000 N   0  0  0  0  0  0  0  0  0  0  0  0
   -0.7500    6.4952    0.0000 C   0  0  0  0  0  0  0  0  0  0  0  0
   -1.5000    7.7942    0.0000 C   0  0  0  0  0  0  0  0  0  0  0  0
   -3.0000    7.7942    0.0000 N   0  0  0  0  0  0  0  0  0  0  0  0
   -3.7500    6.4952    0.0000 C   0  0  0  0  0  0  0  0  0  0  0  0
   -3.0000    5.1962    0.0000 C   0  0  0  0  0  0  0  0  0  0  0  0
   -1.5000    2.5981    0.0000 C   0  0  0  0  0  0  0  0  0  0  0  0
   -3.0000    2.5981    0.0000 C   0  0  0  0  0  0  0  0  0  0  0  0
   -4.2990    1.8481    0.0000 C   0  0  0  0  0  0  0  0  0  0  0  0
   -4.2990    3.3481    0.0000 C   0  0  0  0  0  0  0  0  0  0  0  0
   -0.7500    1.2990    0.0000 C   0  0  0  0  0  0  0  0  0  0  0  0
   -1.5000    0.0000    0.0000 C   0  0  0  0  0  0  0  0  0  0  0  0
   -0.7500   -1.2990    0.0000 N   0  0  0  0  0  0  0  0  0  0  0  0
  1  2  1  0
  2  3  2  0
  3  4  1  0
  4  5  2  0
  5  6  1  0
  6  7  2  0
  7  8  1  0
  8  9  1  0
  9 10  2  0
  9 11  1  0
 11 12  2  0
 12 13  1  0
 13 14  2  0
 14 15  1  0
 15 16  2  0
 16 17  1  0
 17 18  1  0
 18 19  1  0
 19 20  1  0
 20 21  1  0
 21 22  1  0
 16 23  1  0
 23 24  1  0
 24 25  1  0
 25 26  1  0
 23 27  2  0
 27 28  1  0
 28 29  2  0
  7  2  1  0
 29 11  1  0
 27 13  1  0
 22 17  1  0
 26 24  1  0
M  END
>  <molecule_chembl_id>  (765) 
CHEMBL3664032

>  <canonical_smiles>  (765) 
Nc1ccccc1NC(=O)c1cc2ccc(N3CCNCC3)c(C3CC3)c2cn1

>  <pchembl_value_mean>  (765) 
6.67

>  <document_chembl_id>  (765) 
CHEMBL3639382

$$$$

     RDKit          2D

 34 36  0  0  0  0  0  0  0  0999 V2000
   12.7500   -3.8971    0.0000 O   0  0  0  0  0  0  0  0  0  0  0  0
   12.0000   -5.1962    0.0000 C   0  0  0  0  0  0  0  0  0  0  0  0
   10.5000   -5.1962    0.0000 C   0  0  0  0  0  0  0  0  0  0  0  0
    9.7500   -3.8971    0.0000 C   0  0  0  0  0  0  0  0  0  0  0  0
    8.2500   -3.8971    0.0000 C   0  0  0  0  0  0  0  0  0  0  0  0
    7.5000   -2.5981    0.0000 C   0  0  0  0  0  0  0  0  0  0  0  0
    6.0000   -2.5981    0.0000 C   0  0  0  0  0  0  0  0  0  0  0  0
    5.2500   -1.2990    0.0000 C   0  0  0  0  0  0  0  0  0  0  0  0
    3.7500   -1.2990    0.0000 C   0  0  0  0  0  0  0  0  0  0  0  0
    3.0000   -2.5981    0.0000 O   0  0  0  0  0  0  0  0  0  0  0  0
    3.0000    0.0000    0.0000 N   0  0  0  0  0  0  0  0  0  0  0  0
    1.5000    0.0000    0.0000 C   0  0  0  0  0  0  0  0  0  0  0  0
    0.7500   -1.2990    0.0000 C   0  0  0  0  0  0  0  0  0  0  0  0
   -0.7500   -1.2990    0.0000 C   0  0  0  0  0  0  0  0  0  0  0  0
   -1.5000    0.0000    0.0000 C   0  0  0  0  0  0  0  0  0  0  0  0
   -3.0000    0.0000    0.0000 C   0  0  0  0  0  0  0  0  0  0  0  0
   -3.8817   -1.2135    0.0000 C   0  0  0  0  0  0  0  0  0  0  0  0
   -5.3083   -0.7500    0.0000 N   0  0  0  0  0  0  0  0  0  0  0  0
   -5.3083    0.7500    0.0000 N   0  0  0  0  0  0  0  0  0  0  0  0
   -3.8817    1.2135    0.0000 N   0  0  0  0  0  0  0  0  0  0  0  0
   -3.4182    2.6401    0.0000 C   0  0  0  0  0  0  0  0  0  0  0  0
   -4.4218    3.7548    0.0000 C   0  0  0  0  0  0  0  0  0  0  0  0
   -5.8891    3.4430    0.0000 O   0  0  0  0  0  0  0  0  0  0  0  0
   -3.9583    5.1814    0.0000 C   0  0  0  0  0  0  0  0  0  0  0  0
   -2.4911    5.4933    0.0000 C   0  0  0  0  0  0  0  0  0  0  0  0
   -2.0276    6.9199    0.0000 C   0  0  0  0  0  0  0  0  0  0  0  0
   -3.0313    8.0346    0.0000 C   0  0  0  0  0  0  0  0  0  0  0  0
   -4.4985    7.7227    0.0000 C   0  0  0  0  0  0  0  0  0  0  0  0
   -5.5022    8.8374    0.0000 Br  0  0  0  0  0  0  0  0  0  0  0  0
   -4.9620    6.2961    0.0000 C   0  0  0  0  0  0  0  0  0  0  0  0
   -0.7500    1.2990    0.0000 C   0  0  0  0  0  0  0  0  0  0  0  0
    0.7500    1.2990    0.0000 C   0  0  0  0  0  0  0  0  0  0  0  0
   12.7500   -6.4952    0.0000 N   0  0  0  0  0  0  0  0  0  0  0  0
   14.2500   -6.4952    0.0000 O   0  0  0  0  0  0  0  0  0  0  0  0
  1  2  2  0
  2  3  1  0
  3  4  1  0
  4  5  1  0
  5  6  1  0
  6  7  1  0
  7  8  1  0
  8  9  1  0
  9 10  2  0
  9 11  1  0
 11 12  1  0
 12 13  2  0
 13 14  1  0
 14 15  2  0
 15 16  1  0
 16 17  2  0
 17 18  1  0
 18 19  2  0
 19 20  1  0
 20 21  1  0
 21 22  1  0
 22 23  1  0
 22 24  1  0
 24 25  2  0
 25 26  1  0
 26 27  2  0
 27 28  1  0
 28 29  1  0
 28 30  2  0
 15 31  1  0
 31 32  2  0
  2 33  1  0
 33 34  1  0
 32 12  1  0
 20 16  1  0
 30 24  1  0
M  END
>  <molecule_chembl_id>  (766) 
CHEMBL487943

>  <canonical_smiles>  (766) 
O=C(CCCCCCC(=O)Nc1ccc(-c2cnnn2CC(O)c2cccc(Br)c2)cc1)NO

>  <pchembl_value_mean>  (766) 
6.67

>  <document_chembl_id>  (766) 
CHEMBL1150413

$$$$

     RDKit          2D

 27 29  0  0  0  0  0  0  0  0999 V2000
  -10.5000   -7.7942    0.0000 O   0  0  0  0  0  0  0  0  0  0  0  0
   -9.7500   -9.0933    0.0000 C   0  0  0  0  0  0  0  0  0  0  0  0
   -8.2500   -9.0933    0.0000 C   0  0  0  0  0  0  0  0  0  0  0  0
   -7.5000   -7.7942    0.0000 C   0  0  0  0  0  0  0  0  0  0  0  0
   -6.0000   -7.7942    0.0000 C   0  0  0  0  0  0  0  0  0  0  0  0
   -5.2500   -6.4952    0.0000 C   0  0  0  0  0  0  0  0  0  0  0  0
   -3.7500   -6.4952    0.0000 C   0  0  0  0  0  0  0  0  0  0  0  0
   -3.0000   -5.1962    0.0000 C   0  0  0  0  0  0  0  0  0  0  0  0
   -1.5000   -5.1962    0.0000 N   0  0  0  0  0  0  0  0  0  0  0  0
   -0.7500   -6.4952    0.0000 C   0  0  0  0  0  0  0  0  0  0  0  0
   -1.5000   -7.7942    0.0000 C   0  0  0  0  0  0  0  0  0  0  0  0
   -0.7500   -9.0933    0.0000 C   0  0  0  0  0  0  0  0  0  0  0  0
    0.7500   -9.0933    0.0000 C   0  0  0  0  0  0  0  0  0  0  0  0
    1.5000   -7.7942    0.0000 C   0  0  0  0  0  0  0  0  0  0  0  0
    0.7500   -6.4952    0.0000 N   0  0  0  0  0  0  0  0  0  0  0  0
   -0.7500   -3.8971    0.0000 C   0  0  0  0  0  0  0  0  0  0  0  0
    0.7500   -3.8971    0.0000 C   0  0  0  0  0  0  0  0  0  0  0  0
    1.5000   -2.5981    0.0000 C   0  0  0  0  0  0  0  0  0  0  0  0
    0.7500   -1.2990    0.0000 C   0  0  0  0  0  0  0  0  0  0  0  0
    1.5000    0.0000    0.0000 C   0  0  0  0  0  0  0  0  0  0  0  0
    0.7500    1.2990    0.0000 C   0  0  0  0  0  0  0  0  0  0  0  0
   -0.7500    1.2990    0.0000 C   0  0  0  0  0  0  0  0  0  0  0  0
   -1.5000    0.0000    0.0000 C   0  0  0  0  0  0  0  0  0  0  0  0
   -0.7500   -1.2990    0.0000 C   0  0  0  0  0  0  0  0  0  0  0  0
   -1.5000   -2.5981    0.0000 N   0  0  0  0  0  0  0  0  0  0  0  0
  -10.5000  -10.3923    0.0000 N   0  0  0  0  0  0  0  0  0  0  0  0
  -12.0000  -10.3923    0.0000 O   0  0  0  0  0  0  0  0  0  0  0  0
  1  2  2  0
  2  3  1  0
  3  4  1  0
  4  5  1  0
  5  6  1  0
  6  7  1  0
  7  8  1  0
  8  9  1  0
  9 10  1  0
 10 11  2  0
 11 12  1  0
 12 13  2  0
 13 14  1  0
 14 15  2  0
  9 16  1  0
 16 17  2  0
 17 18  1  0
 18 19  2  0
 19 20  1  0
 20 21  2  0
 21 22  1  0
 22 23  2  0
 23 24  1  0
 24 25  2  0
  2 26  1  0
 26 27  1  0
 15 10  1  0
 25 16  1  0
 24 19  1  0
M  END
>  <molecule_chembl_id>  (767) 
CHEMBL3675758

>  <canonical_smiles>  (767) 
O=C(CCCCCCN(c1ccccn1)c1ccc2ccccc2n1)NO

>  <pchembl_value_mean>  (767) 
6.67

>  <document_chembl_id>  (767) 
CHEMBL3639343

$$$$

     RDKit          2D

 29 32  0  0  0  0  0  0  0  0999 V2000
    3.0000    0.0000    0.0000 N   0  0  0  0  0  0  0  0  0  0  0  0
    1.5000    0.0000    0.0000 C   0  0  0  0  0  0  0  0  0  0  0  0
    0.7500   -1.2990    0.0000 C   0  0  0  0  0  0  0  0  0  0  0  0
   -0.7500   -1.2990    0.0000 C   0  0  0  0  0  0  0  0  0  0  0  0
   -1.5000    0.0000    0.0000 C   0  0  0  0  0  0  0  0  0  0  0  0
   -0.7500    1.2990    0.0000 C   0  0  0  0  0  0  0  0  0  0  0  0
    0.7500    1.2990    0.0000 C   0  0  0  0  0  0  0  0  0  0  0  0
    1.5000    2.5981    0.0000 N   0  0  0  0  0  0  0  0  0  0  0  0
    0.7500    3.8971    0.0000 C   0  0  0  0  0  0  0  0  0  0  0  0
   -0.7500    3.8971    0.0000 O   0  0  0  0  0  0  0  0  0  0  0  0
    1.5000    5.1962    0.0000 C   0  0  0  0  0  0  0  0  0  0  0  0
    3.0000    5.1962    0.0000 C   0  0  0  0  0  0  0  0  0  0  0  0
    3.7500    6.4952    0.0000 C   0  0  0  0  0  0  0  0  0  0  0  0
    3.0000    7.7942    0.0000 C   0  0  0  0  0  0  0  0  0  0  0  0
    3.7500    9.0933    0.0000 C   0  0  0  0  0  0  0  0  0  0  0  0
    5.2500    9.0933    0.0000 N   0  0  0  0  0  0  0  0  0  0  0  0
    6.0000   10.3923    0.0000 C   0  0  0  0  0  0  0  0  0  0  0  0
    5.3899   11.7626    0.0000 N   0  0  0  0  0  0  0  0  0  0  0  0
    6.5046   12.7663    0.0000 C   0  0  0  0  0  0  0  0  0  0  0  0
    6.3478   14.2581    0.0000 C   0  0  0  0  0  0  0  0  0  0  0  0
    7.5613   15.1398    0.0000 C   0  0  0  0  0  0  0  0  0  0  0  0
    7.5613   16.6398    0.0000 C   0  0  0  0  0  0  0  0  0  0  0  0
    8.9879   17.1033    0.0000 N   0  0  0  0  0  0  0  0  0  0  0  0
    9.8696   15.8898    0.0000 C   0  0  0  0  0  0  0  0  0  0  0  0
    8.9879   14.6763    0.0000 N   0  0  0  0  0  0  0  0  0  0  0  0
    7.8037   12.0163    0.0000 C   0  0  0  0  0  0  0  0  0  0  0  0
    7.4918   10.5491    0.0000 O   0  0  0  0  0  0  0  0  0  0  0  0
    1.5000    7.7942    0.0000 C   0  0  0  0  0  0  0  0  0  0  0  0
    0.7500    6.4952    0.0000 C   0  0  0  0  0  0  0  0  0  0  0  0
  1  2  1  0
  2  3  2  0
  3  4  1  0
  4  5  2  0
  5  6  1  0
  6  7  2  0
  7  8  1  0
  8  9  1  0
  9 10  2  0
  9 11  1  0
 11 12  2  0
 12 13  1  0
 13 14  2  0
 14 15  1  0
 15 16  1  0
 16 17  1  0
 17 18  2  0
 18 19  1  0
 19 20  1  0
 20 21  1  0
 21 22  2  0
 22 23  1  0
 23 24  1  0
 24 25  2  0
 19 26  1  0
 26 27  1  0
 14 28  1  0
 28 29  2  0
  7  2  1  0
 29 11  1  0
 27 17  1  0
 25 21  1  0
M  END
>  <molecule_chembl_id>  (768) 
CHEMBL3605508

>  <canonical_smiles>  (768) 
Nc1ccccc1NC(=O)c1ccc(CNC2=NC(Cc3c[nH]cn3)CO2)cc1

>  <pchembl_value_mean>  (768) 
6.67

>  <document_chembl_id>  (768) 
CHEMBL3603817

$$$$

     RDKit          2D

 40 43  0  0  0  0  0  0  0  0999 V2000
   -4.6904   -6.5871    0.0000 C   0  0  0  0  0  0  0  0  0  0  0  0
   -4.3786   -5.1199    0.0000 O   0  0  0  0  0  0  0  0  0  0  0  0
   -2.9520   -4.6564    0.0000 C   0  0  0  0  0  0  0  0  0  0  0  0
   -1.8373   -5.6601    0.0000 O   0  0  0  0  0  0  0  0  0  0  0  0
   -2.6401   -3.1891    0.0000 C   0  0  0  0  0  0  0  0  0  0  0  0
   -1.2135   -2.7256    0.0000 C   0  0  0  0  0  0  0  0  0  0  0  0
   -0.0000   -3.6073    0.0000 C   0  0  0  0  0  0  0  0  0  0  0  0
   -0.0000   -5.1073    0.0000 C   0  0  0  0  0  0  0  0  0  0  0  0
    1.2135   -2.7256    0.0000 N   0  0  0  0  0  0  0  0  0  0  0  0
    2.6401   -3.1891    0.0000 C   0  0  0  0  0  0  0  0  0  0  0  0
    2.9520   -4.6564    0.0000 C   0  0  0  0  0  0  0  0  0  0  0  0
    1.8373   -5.6601    0.0000 C   0  0  0  0  0  0  0  0  0  0  0  0
    2.1491   -7.1273    0.0000 C   0  0  0  0  0  0  0  0  0  0  0  0
    3.5757   -7.5908    0.0000 C   0  0  0  0  0  0  0  0  0  0  0  0
    3.8876   -9.0580    0.0000 C   0  0  0  0  0  0  0  0  0  0  0  0
    5.2579   -9.6681    0.0000 C   0  0  0  0  0  0  0  0  0  0  0  0
    5.1011  -11.1599    0.0000 N   0  0  0  0  0  0  0  0  0  0  0  0
    6.2158  -12.1636    0.0000 C   0  0  0  0  0  0  0  0  0  0  0  0
    5.9040  -13.6308    0.0000 C   0  0  0  0  0  0  0  0  0  0  0  0
    7.0187  -14.6345    0.0000 C   0  0  0  0  0  0  0  0  0  0  0  0
    6.7068  -16.1018    0.0000 C   0  0  0  0  0  0  0  0  0  0  0  0
    7.8215  -17.1055    0.0000 C   0  0  0  0  0  0  0  0  0  0  0  0
    7.5097  -18.5727    0.0000 C   0  0  0  0  0  0  0  0  0  0  0  0
    8.6244  -19.5764    0.0000 C   0  0  0  0  0  0  0  0  0  0  0  0
    8.3125  -21.0436    0.0000 C   0  0  0  0  0  0  0  0  0  0  0  0
    6.8859  -21.5071    0.0000 O   0  0  0  0  0  0  0  0  0  0  0  0
    9.4272  -22.0473    0.0000 N   0  0  0  0  0  0  0  0  0  0  0  0
    9.1154  -23.5145    0.0000 O   0  0  0  0  0  0  0  0  0  0  0  0
    3.6339  -11.4718    0.0000 N   0  0  0  0  0  0  0  0  0  0  0  0
    2.8839  -10.1728    0.0000 N   0  0  0  0  0  0  0  0  0  0  0  0
    4.6904   -6.5871    0.0000 C   0  0  0  0  0  0  0  0  0  0  0  0
    4.3786   -5.1199    0.0000 C   0  0  0  0  0  0  0  0  0  0  0  0
    0.7500   -1.2990    0.0000 C   0  0  0  0  0  0  0  0  0  0  0  0
    1.5000    0.0000    0.0000 C   0  0  0  0  0  0  0  0  0  0  0  0
    0.7500    1.2990    0.0000 C   0  0  0  0  0  0  0  0  0  0  0  0
   -0.7500    1.2990    0.0000 C   0  0  0  0  0  0  0  0  0  0  0  0
   -1.5000    2.5981    0.0000 O   0  0  0  0  0  0  0  0  0  0  0  0
   -0.7500    3.8971    0.0000 C   0  0  0  0  0  0  0  0  0  0  0  0
   -1.5000    0.0000    0.0000 C   0  0  0  0  0  0  0  0  0  0  0  0
   -0.7500   -1.2990    0.0000 C   0  0  0  0  0  0  0  0  0  0  0  0
  1  2  1  0
  2  3  1  0
  3  4  2  0
  3  5  1  0
  5  6  1  0
  6  7  2  0
  7  8  1  0
  7  9  1  0
  9 10  1  0
 10 11  1  0
 11 12  2  0
 12 13  1  0
 13 14  2  0
 14 15  1  0
 15 16  2  0
 16 17  1  0
 17 18  1  0
 18 19  1  0
 19 20  1  0
 20 21  1  0
 21 22  1  0
 22 23  1  0
 23 24  1  0
 24 25  1  0
 25 26  2  0
 25 27  1  0
 27 28  1  0
 17 29  1  0
 29 30  2  0
 14 31  1  0
 31 32  2  0
  9 33  1  0
 33 34  2  0
 34 35  1  0
 35 36  2  0
 36 37  1  0
 37 38  1  0
 36 39  1  0
 39 40  2  0
 40  6  1  0
 32 11  1  0
 40 33  1  0
 30 15  1  0
M  END
>  <molecule_chembl_id>  (769) 
CHEMBL3885011

>  <canonical_smiles>  (769) 
COC(=O)Cc1c(C)n(Cc2ccc(-c3cn(CCCCCCCC(=O)NO)nn3)cc2)c2ccc(OC)cc12

>  <pchembl_value_mean>  (769) 
6.68

>  <document_chembl_id>  (769) 
CHEMBL3875218

$$$$

     RDKit          2D

 37 40  0  0  0  0  0  0  0  0999 V2000
    5.8632    8.2177    0.0000 C   0  0  0  0  0  0  0  0  0  0  0  0
    5.2327    6.8567    0.0000 O   0  0  0  0  0  0  0  0  0  0  0  0
    6.0961    5.6301    0.0000 C   0  0  0  0  0  0  0  0  0  0  0  0
    7.5901    5.7646    0.0000 C   0  0  0  0  0  0  0  0  0  0  0  0
    8.4535    4.5380    0.0000 C   0  0  0  0  0  0  0  0  0  0  0  0
    7.8229    3.1770    0.0000 C   0  0  0  0  0  0  0  0  0  0  0  0
    8.6864    1.9504    0.0000 S   0  0  0  0  0  0  0  0  0  0  0  0
    7.4598    1.0870    0.0000 O   0  0  0  0  0  0  0  0  0  0  0  0
    9.9129    2.8138    0.0000 O   0  0  0  0  0  0  0  0  0  0  0  0
    9.5498    0.7238    0.0000 N   0  0  0  0  0  0  0  0  0  0  0  0
   11.0496    0.7014    0.0000 C   0  0  0  0  0  0  0  0  0  0  0  0
   11.4918   -0.7320    0.0000 C   0  0  0  0  0  0  0  0  0  0  0  0
   10.2652   -1.5954    0.0000 C   0  0  0  0  0  0  0  0  0  0  0  0
   10.2427   -3.0953    0.0000 C   0  0  0  0  0  0  0  0  0  0  0  0
    8.9326   -3.8257    0.0000 C   0  0  0  0  0  0  0  0  0  0  0  0
    8.9102   -5.3256    0.0000 C   0  0  0  0  0  0  0  0  0  0  0  0
   10.1979   -6.0949    0.0000 O   0  0  0  0  0  0  0  0  0  0  0  0
    7.6001   -6.0561    0.0000 N   0  0  0  0  0  0  0  0  0  0  0  0
    7.5776   -7.5559    0.0000 O   0  0  0  0  0  0  0  0  0  0  0  0
    9.0650   -0.6957    0.0000 C   0  0  0  0  0  0  0  0  0  0  0  0
    6.3290    3.0425    0.0000 C   0  0  0  0  0  0  0  0  0  0  0  0
    5.4656    4.2691    0.0000 C   0  0  0  0  0  0  0  0  0  0  0  0
    3.9716    4.1346    0.0000 N   0  0  0  0  0  0  0  0  0  0  0  0
    3.3411    2.7736    0.0000 C   0  0  0  0  0  0  0  0  0  0  0  0
    4.2045    1.5470    0.0000 O   0  0  0  0  0  0  0  0  0  0  0  0
    1.8471    2.6391    0.0000 C   0  0  0  0  0  0  0  0  0  0  0  0
    0.8602    3.7687    0.0000 N   0  0  0  0  0  0  0  0  0  0  0  0
   -0.5191    3.1792    0.0000 C   0  0  0  0  0  0  0  0  0  0  0  0
   -1.8068    3.9485    0.0000 C   0  0  0  0  0  0  0  0  0  0  0  0
   -0.3846    1.6852    0.0000 C   0  0  0  0  0  0  0  0  0  0  0  0
    1.0777    1.3515    0.0000 C   0  0  0  0  0  0  0  0  0  0  0  0
    1.7286    0.0000    0.0000 C   0  0  0  0  0  0  0  0  0  0  0  0
    1.0777   -1.3515    0.0000 C   0  0  0  0  0  0  0  0  0  0  0  0
   -0.3846   -1.6852    0.0000 C   0  0  0  0  0  0  0  0  0  0  0  0
   -1.5574   -0.7500    0.0000 C   0  0  0  0  0  0  0  0  0  0  0  0
   -1.5574    0.7500    0.0000 C   0  0  0  0  0  0  0  0  0  0  0  0
   -2.9088    1.4008    0.0000 O   0  0  0  0  0  0  0  0  0  0  0  0
  1  2  1  0
  2  3  1  0
  3  4  2  0
  4  5  1  0
  5  6  2  0
  6  7  1  0
  7  8  2  0
  7  9  2  0
  7 10  1  0
 10 11  1  0
 11 12  2  0
 12 13  1  0
 13 14  1  0
 14 15  2  3
 15 16  1  0
 16 17  2  0
 16 18  1  0
 18 19  1  0
 13 20  2  0
  6 21  1  0
 21 22  2  0
 22 23  1  0
 23 24  1  0
 24 25  2  0
 24 26  1  0
 26 27  1  0
 27 28  1  0
 28 29  1  0
 28 30  2  0
 30 31  1  0
 31 32  1  0
 32 33  1  0
 33 34  1  0
 34 35  1  0
 35 36  1  0
 36 37  2  0
 22  3  1  0
 31 26  2  0
 20 10  1  0
 36 30  1  0
M  END
>  <molecule_chembl_id>  (770) 
CHEMBL5080049

>  <canonical_smiles>  (770) 
COc1ccc(S(=O)(=O)n2ccc(C=CC(=O)NO)c2)cc1NC(=O)c1[nH]c(C)c2c1CCCCC2=O

>  <pchembl_value_mean>  (770) 
6.68

>  <document_chembl_id>  (770) 
CHEMBL5055650

$$$$

     RDKit          2D

 37 39  0  0  0  0  0  0  0  0999 V2000
  -14.8093  -16.7044    0.0000 C   0  0  0  0  0  0  0  0  0  0  0  0
  -13.3827  -16.2409    0.0000 C   0  0  0  0  0  0  0  0  0  0  0  0
  -13.0708  -14.7736    0.0000 C   0  0  0  0  0  0  0  0  0  0  0  0
  -11.6442  -14.3101    0.0000 N   0  0  0  0  0  0  0  0  0  0  0  0
  -11.3324  -12.8429    0.0000 N   0  0  0  0  0  0  0  0  0  0  0  0
   -9.9058  -12.3794    0.0000 C   0  0  0  0  0  0  0  0  0  0  0  0
   -8.7911  -13.3831    0.0000 O   0  0  0  0  0  0  0  0  0  0  0  0
   -9.5939  -10.9121    0.0000 C   0  0  0  0  0  0  0  0  0  0  0  0
   -8.1673  -10.4486    0.0000 C   0  0  0  0  0  0  0  0  0  0  0  0
   -7.8555   -8.9814    0.0000 C   0  0  0  0  0  0  0  0  0  0  0  0
   -6.4289   -8.5179    0.0000 C   0  0  0  0  0  0  0  0  0  0  0  0
   -6.1170   -7.0506    0.0000 C   0  0  0  0  0  0  0  0  0  0  0  0
   -4.6904   -6.5871    0.0000 N   0  0  0  0  0  0  0  0  0  0  0  0
   -4.3786   -5.1199    0.0000 C   0  0  0  0  0  0  0  0  0  0  0  0
   -5.4933   -4.1162    0.0000 O   0  0  0  0  0  0  0  0  0  0  0  0
   -2.9520   -4.6564    0.0000 C   0  0  0  0  0  0  0  0  0  0  0  0
   -2.6401   -3.1891    0.0000 C   0  0  0  0  0  0  0  0  0  0  0  0
   -1.2135   -2.7256    0.0000 C   0  0  0  0  0  0  0  0  0  0  0  0
   -0.0000   -3.6073    0.0000 C   0  0  0  0  0  0  0  0  0  0  0  0
    1.2135   -2.7256    0.0000 N   0  0  0  0  0  0  0  0  0  0  0  0
    0.7500   -1.2990    0.0000 C   0  0  0  0  0  0  0  0  0  0  0  0
    1.5000    0.0000    0.0000 C   0  0  0  0  0  0  0  0  0  0  0  0
    0.7500    1.2990    0.0000 C   0  0  0  0  0  0  0  0  0  0  0  0
   -0.7500    1.2990    0.0000 C   0  0  0  0  0  0  0  0  0  0  0  0
   -1.5000    0.0000    0.0000 C   0  0  0  0  0  0  0  0  0  0  0  0
   -0.7500   -1.2990    0.0000 C   0  0  0  0  0  0  0  0  0  0  0  0
   -1.8373   -5.6601    0.0000 N   0  0  0  0  0  0  0  0  0  0  0  0
   -2.1491   -7.1273    0.0000 C   0  0  0  0  0  0  0  0  0  0  0  0
   -3.5757   -7.5908    0.0000 O   0  0  0  0  0  0  0  0  0  0  0  0
   -1.0344   -8.1310    0.0000 C   0  0  0  0  0  0  0  0  0  0  0  0
   -1.3463   -9.5982    0.0000 C   0  0  0  0  0  0  0  0  0  0  0  0
   -0.2316  -10.6019    0.0000 C   0  0  0  0  0  0  0  0  0  0  0  0
    1.1950  -10.1384    0.0000 C   0  0  0  0  0  0  0  0  0  0  0  0
    2.3097  -11.1421    0.0000 O   0  0  0  0  0  0  0  0  0  0  0  0
    1.9979  -12.6093    0.0000 C   0  0  0  0  0  0  0  0  0  0  0  0
    1.5069   -8.6712    0.0000 C   0  0  0  0  0  0  0  0  0  0  0  0
    0.3922   -7.6675    0.0000 C   0  0  0  0  0  0  0  0  0  0  0  0
  1  2  1  0
  2  3  1  0
  3  4  1  0
  4  5  1  0
  5  6  1  0
  6  7  2  0
  6  8  1  0
  8  9  1  0
  9 10  1  0
 10 11  1  0
 11 12  1  0
 12 13  1  0
 13 14  1  0
 14 15  2  0
 14 16  1  0
 16 17  1  0
 17 18  1  0
 18 19  2  0
 19 20  1  0
 20 21  1  0
 21 22  2  0
 22 23  1  0
 23 24  2  0
 24 25  1  0
 25 26  2  0
 16 27  1  0
 27 28  1  0
 28 29  2  0
 28 30  1  0
 30 31  2  0
 31 32  1  0
 32 33  2  0
 33 34  1  0
 34 35  1  0
 33 36  1  0
 36 37  2  0
 26 18  1  0
 37 30  1  0
 26 21  1  0
M  END
>  <molecule_chembl_id>  (771) 
CHEMBL4070388

>  <canonical_smiles>  (771) 
CCCNNC(=O)CCCCCNC(=O)C(Cc1c[nH]c2ccccc12)NC(=O)c1ccc(OC)cc1

>  <pchembl_value_mean>  (771) 
6.68

>  <document_chembl_id>  (771) 
CHEMBL4020839

$$$$

     RDKit          2D

 27 29  0  0  0  0  0  0  0  0999 V2000
    5.2500   -1.2990    0.0000 C   0  0  0  0  0  0  0  0  0  0  0  0
    3.7500   -1.2990    0.0000 N   0  0  0  0  0  0  0  0  0  0  0  0
    3.0000    0.0000    0.0000 C   0  0  0  0  0  0  0  0  0  0  0  0
    3.7500    1.2990    0.0000 O   0  0  0  0  0  0  0  0  0  0  0  0
    1.5000    0.0000    0.0000 N   0  0  0  0  0  0  0  0  0  0  0  0
    0.7500   -1.2990    0.0000 C   0  0  0  0  0  0  0  0  0  0  0  0
   -0.7500   -1.2990    0.0000 C   0  0  0  0  0  0  0  0  0  0  0  0
   -1.5000    0.0000    0.0000 C   0  0  0  0  0  0  0  0  0  0  0  0
   -2.6491    0.9642    0.0000 N   0  0  0  0  0  0  0  0  0  0  0  0
   -2.3886    2.4414    0.0000 C   0  0  0  0  0  0  0  0  0  0  0  0
   -0.9791    2.9544    0.0000 N   0  0  0  0  0  0  0  0  0  0  0  0
   -0.7186    4.4316    0.0000 C   0  0  0  0  0  0  0  0  0  0  0  0
   -1.8676    5.3958    0.0000 C   0  0  0  0  0  0  0  0  0  0  0  0
   -1.6072    6.8730    0.0000 C   0  0  0  0  0  0  0  0  0  0  0  0
   -2.7562    7.8372    0.0000 O   0  0  0  0  0  0  0  0  0  0  0  0
   -0.1976    7.3861    0.0000 N   0  0  0  0  0  0  0  0  0  0  0  0
    0.0628    8.8633    0.0000 O   0  0  0  0  0  0  0  0  0  0  0  0
   -3.2772    4.8828    0.0000 C   0  0  0  0  0  0  0  0  0  0  0  0
   -3.5377    3.4056    0.0000 N   0  0  0  0  0  0  0  0  0  0  0  0
   -2.6491   -0.9642    0.0000 C   0  0  0  0  0  0  0  0  0  0  0  0
   -4.0586   -0.4512    0.0000 C   0  0  0  0  0  0  0  0  0  0  0  0
   -5.2077   -1.4153    0.0000 C   0  0  0  0  0  0  0  0  0  0  0  0
   -4.9472   -2.8925    0.0000 C   0  0  0  0  0  0  0  0  0  0  0  0
   -3.5377   -3.4056    0.0000 C   0  0  0  0  0  0  0  0  0  0  0  0
   -2.3886   -2.4414    0.0000 C   0  0  0  0  0  0  0  0  0  0  0  0
   -0.7500    1.2990    0.0000 C   0  0  0  0  0  0  0  0  0  0  0  0
    0.7500    1.2990    0.0000 C   0  0  0  0  0  0  0  0  0  0  0  0
  1  2  1  0
  2  3  1  0
  3  4  2  0
  3  5  1  0
  5  6  1  0
  6  7  1  0
  7  8  1  0
  8  9  1  0
  9 10  1  0
 10 11  2  0
 11 12  1  0
 12 13  2  0
 13 14  1  0
 14 15  2  0
 14 16  1  0
 16 17  1  0
 13 18  1  0
 18 19  2  0
  8 20  1  0
 20 21  2  0
 21 22  1  0
 22 23  2  0
 23 24  1  0
 24 25  2  0
  8 26  1  0
 26 27  1  0
 27  5  1  0
 19 10  1  0
 25 20  1  0
M  END
>  <molecule_chembl_id>  (772) 
CHEMBL3951862

>  <canonical_smiles>  (772) 
CNC(=O)N1CCC(Nc2ncc(C(=O)NO)cn2)(c2ccccc2)CC1

>  <pchembl_value_mean>  (772) 
6.68

>  <document_chembl_id>  (772) 
CHEMBL3886590

$$$$

     RDKit          2D

 36 39  0  0  0  0  0  0  0  0999 V2000
    1.5342   -9.4474    0.0000 O   0  0  0  0  0  0  0  0  0  0  0  0
    0.3207   -8.5658    0.0000 C   0  0  0  0  0  0  0  0  0  0  0  0
    0.4775   -7.0740    0.0000 C   0  0  0  0  0  0  0  0  0  0  0  0
    1.8478   -6.4639    0.0000 C   0  0  0  0  0  0  0  0  0  0  0  0
    2.0046   -4.9721    0.0000 C   0  0  0  0  0  0  0  0  0  0  0  0
    0.8899   -3.9684    0.0000 C   0  0  0  0  0  0  0  0  0  0  0  0
   -0.5773   -4.2803    0.0000 O   0  0  0  0  0  0  0  0  0  0  0  0
    1.5000   -2.5981    0.0000 N   0  0  0  0  0  0  0  0  0  0  0  0
    0.7500   -1.2990    0.0000 C   0  0  0  0  0  0  0  0  0  0  0  0
    1.5000    0.0000    0.0000 C   0  0  0  0  0  0  0  0  0  0  0  0
    0.7500    1.2990    0.0000 C   0  0  0  0  0  0  0  0  0  0  0  0
   -0.7500    1.2990    0.0000 C   0  0  0  0  0  0  0  0  0  0  0  0
   -1.5000    2.5981    0.0000 Cl  0  0  0  0  0  0  0  0  0  0  0  0
   -1.5000    0.0000    0.0000 C   0  0  0  0  0  0  0  0  0  0  0  0
   -0.7500   -1.2990    0.0000 C   0  0  0  0  0  0  0  0  0  0  0  0
    2.9918   -2.7549    0.0000 C   0  0  0  0  0  0  0  0  0  0  0  0
    3.9955   -1.6402    0.0000 O   0  0  0  0  0  0  0  0  0  0  0  0
    3.3037   -4.2221    0.0000 N   0  0  0  0  0  0  0  0  0  0  0  0
    4.6740   -4.8322    0.0000 C   0  0  0  0  0  0  0  0  0  0  0  0
    4.8308   -6.3240    0.0000 C   0  0  0  0  0  0  0  0  0  0  0  0
    3.6172   -7.2057    0.0000 C   0  0  0  0  0  0  0  0  0  0  0  0
    3.7740   -8.6974    0.0000 C   0  0  0  0  0  0  0  0  0  0  0  0
    5.1443   -9.3075    0.0000 C   0  0  0  0  0  0  0  0  0  0  0  0
    6.3579   -8.4259    0.0000 C   0  0  0  0  0  0  0  0  0  0  0  0
    6.2011   -6.9341    0.0000 C   0  0  0  0  0  0  0  0  0  0  0  0
   -1.0496   -9.1759    0.0000 N   0  0  0  0  0  0  0  0  0  0  0  0
   -1.2064  -10.6676    0.0000 C   0  0  0  0  0  0  0  0  0  0  0  0
   -2.5767  -11.2778    0.0000 C   0  0  0  0  0  0  0  0  0  0  0  0
   -2.7335  -12.7695    0.0000 C   0  0  0  0  0  0  0  0  0  0  0  0
   -1.5200  -13.6512    0.0000 C   0  0  0  0  0  0  0  0  0  0  0  0
   -1.6768  -15.1430    0.0000 C   0  0  0  0  0  0  0  0  0  0  0  0
   -0.4633  -16.0247    0.0000 O   0  0  0  0  0  0  0  0  0  0  0  0
   -3.0471  -15.7531    0.0000 N   0  0  0  0  0  0  0  0  0  0  0  0
   -3.2039  -17.2449    0.0000 O   0  0  0  0  0  0  0  0  0  0  0  0
   -0.1497  -13.0411    0.0000 C   0  0  0  0  0  0  0  0  0  0  0  0
    0.0071  -11.5493    0.0000 C   0  0  0  0  0  0  0  0  0  0  0  0
  1  2  2  0
  2  3  1  0
  3  4  1  0
  4  5  1  0
  5  6  1  0
  6  7  2  0
  6  8  1  0
  8  9  1  0
  9 10  2  0
 10 11  1  0
 11 12  2  0
 12 13  1  0
 12 14  1  0
 14 15  2  0
  8 16  1  0
 16 17  2  0
 16 18  1  0
 18 19  1  0
 19 20  1  0
 20 21  2  0
 21 22  1  0
 22 23  2  0
 23 24  1  0
 24 25  2  0
  2 26  1  0
 26 27  1  0
 27 28  2  0
 28 29  1  0
 29 30  2  0
 30 31  1  0
 31 32  2  0
 31 33  1  0
 33 34  1  0
 30 35  1  0
 35 36  2  0
 18  5  1  0
 25 20  1  0
 36 27  1  0
 15  9  1  0
M  END
>  <molecule_chembl_id>  (773) 
CHEMBL4450285

>  <canonical_smiles>  (773) 
O=C(CCC1C(=O)N(c2ccc(Cl)cc2)C(=O)N1Cc1ccccc1)Nc1ccc(C(=O)NO)cc1

>  <pchembl_value_mean>  (773) 
6.69

>  <document_chembl_id>  (773) 
CHEMBL4304789

$$$$

     RDKit          2D

 26 28  0  0  0  0  0  0  0  0999 V2000
    3.7500   -1.2990    0.0000 C   0  0  0  0  0  0  0  0  0  0  0  0
    3.0000    0.0000    0.0000 O   0  0  0  0  0  0  0  0  0  0  0  0
    1.5000    0.0000    0.0000 C   0  0  0  0  0  0  0  0  0  0  0  0
    0.7500   -1.2990    0.0000 C   0  0  0  0  0  0  0  0  0  0  0  0
   -0.7500   -1.2990    0.0000 C   0  0  0  0  0  0  0  0  0  0  0  0
   -1.5000    0.0000    0.0000 C   0  0  0  0  0  0  0  0  0  0  0  0
   -3.0000    0.0000    0.0000 S   0  0  0  0  0  0  0  0  0  0  0  0
   -3.7500    1.2990    0.0000 C   0  0  0  0  0  0  0  0  0  0  0  0
   -5.2500    1.2990    0.0000 C   0  0  0  0  0  0  0  0  0  0  0  0
   -6.0000    2.5981    0.0000 C   0  0  0  0  0  0  0  0  0  0  0  0
   -7.5000    2.5981    0.0000 C   0  0  0  0  0  0  0  0  0  0  0  0
   -8.2500    1.2990    0.0000 C   0  0  0  0  0  0  0  0  0  0  0  0
   -9.7500    1.2990    0.0000 C   0  0  0  0  0  0  0  0  0  0  0  0
  -10.5000    0.0000    0.0000 O   0  0  0  0  0  0  0  0  0  0  0  0
  -10.5000    2.5981    0.0000 N   0  0  0  0  0  0  0  0  0  0  0  0
  -12.0000    2.5981    0.0000 C   0  0  0  0  0  0  0  0  0  0  0  0
  -12.7500    3.8971    0.0000 C   0  0  0  0  0  0  0  0  0  0  0  0
  -14.2500    3.8971    0.0000 C   0  0  0  0  0  0  0  0  0  0  0  0
  -15.0000    2.5981    0.0000 C   0  0  0  0  0  0  0  0  0  0  0  0
  -14.2500    1.2990    0.0000 C   0  0  0  0  0  0  0  0  0  0  0  0
  -12.7500    1.2990    0.0000 C   0  0  0  0  0  0  0  0  0  0  0  0
  -12.0000    0.0000    0.0000 N   0  0  0  0  0  0  0  0  0  0  0  0
   -7.5000    0.0000    0.0000 C   0  0  0  0  0  0  0  0  0  0  0  0
   -6.0000    0.0000    0.0000 C   0  0  0  0  0  0  0  0  0  0  0  0
   -0.7500    1.2990    0.0000 C   0  0  0  0  0  0  0  0  0  0  0  0
    0.7500    1.2990    0.0000 C   0  0  0  0  0  0  0  0  0  0  0  0
  1  2  1  0
  2  3  1  0
  3  4  2  0
  4  5  1  0
  5  6  2  0
  6  7  1  0
  7  8  1  0
  8  9  1  0
  9 10  2  0
 10 11  1  0
 11 12  2  0
 12 13  1  0
 13 14  2  0
 13 15  1  0
 15 16  1  0
 16 17  2  0
 17 18  1  0
 18 19  2  0
 19 20  1  0
 20 21  2  0
 21 22  1  0
 12 23  1  0
 23 24  2  0
  6 25  1  0
 25 26  2  0
 26  3  1  0
 24  9  1  0
 21 16  1  0
M  END
>  <molecule_chembl_id>  (774) 
CHEMBL4446236

>  <canonical_smiles>  (774) 
COc1ccc(SCc2ccc(C(=O)Nc3ccccc3N)cc2)cc1

>  <pchembl_value_mean>  (774) 
6.69

>  <document_chembl_id>  (774) 
CHEMBL4396885

$$$$

     RDKit          2D

 32 36  0  0  0  0  0  0  0  0999 V2000
   -8.5256    0.3621    0.0000 O   0  0  0  0  0  0  0  0  0  0  0  0
   -7.0990    0.8256    0.0000 C   0  0  0  0  0  0  0  0  0  0  0  0
   -6.7871    2.2929    0.0000 N   0  0  0  0  0  0  0  0  0  0  0  0
   -7.9018    3.2966    0.0000 O   0  0  0  0  0  0  0  0  0  0  0  0
   -5.9843   -0.1781    0.0000 C   0  0  0  0  0  0  0  0  0  0  0  0
   -4.5577    0.2855    0.0000 C   0  0  0  0  0  0  0  0  0  0  0  0
   -3.4430   -0.7182    0.0000 C   0  0  0  0  0  0  0  0  0  0  0  0
   -3.7548   -2.1855    0.0000 C   0  0  0  0  0  0  0  0  0  0  0  0
   -2.6401   -3.1891    0.0000 C   0  0  0  0  0  0  0  0  0  0  0  0
   -1.2135   -2.7256    0.0000 N   0  0  0  0  0  0  0  0  0  0  0  0
   -0.0000   -3.6073    0.0000 C   0  0  0  0  0  0  0  0  0  0  0  0
    0.0000   -5.1073    0.0000 O   0  0  0  0  0  0  0  0  0  0  0  0
    1.2135   -2.7256    0.0000 C   0  0  0  0  0  0  0  0  0  0  0  0
    2.6401   -3.1891    0.0000 C   0  0  0  0  0  0  0  0  0  0  0  0
    3.1036   -4.6157    0.0000 N   0  0  0  0  0  0  0  0  0  0  0  0
    4.6036   -4.6157    0.0000 C   0  0  0  0  0  0  0  0  0  0  0  0
    5.6073   -5.7305    0.0000 C   0  0  0  0  0  0  0  0  0  0  0  0
    7.0746   -5.4186    0.0000 C   0  0  0  0  0  0  0  0  0  0  0  0
    7.5381   -3.9920    0.0000 C   0  0  0  0  0  0  0  0  0  0  0  0
    6.5344   -2.8773    0.0000 C   0  0  0  0  0  0  0  0  0  0  0  0
    5.0672   -3.1891    0.0000 C   0  0  0  0  0  0  0  0  0  0  0  0
    3.8536   -2.3075    0.0000 C   0  0  0  0  0  0  0  0  0  0  0  0
    3.8536   -0.8075    0.0000 N   0  0  0  0  0  0  0  0  0  0  0  0
    5.1527   -0.0575    0.0000 O   0  0  0  0  0  0  0  0  0  0  0  0
    0.7500   -1.2990    0.0000 C   0  0  0  0  0  0  0  0  0  0  0  0
    1.5000    0.0000    0.0000 C   0  0  0  0  0  0  0  0  0  0  0  0
    0.7500    1.2990    0.0000 C   0  0  0  0  0  0  0  0  0  0  0  0
   -0.7500    1.2990    0.0000 C   0  0  0  0  0  0  0  0  0  0  0  0
   -1.5000    0.0000    0.0000 C   0  0  0  0  0  0  0  0  0  0  0  0
   -0.7500   -1.2990    0.0000 C   0  0  0  0  0  0  0  0  0  0  0  0
   -5.1814   -2.6490    0.0000 C   0  0  0  0  0  0  0  0  0  0  0  0
   -6.2961   -1.6453    0.0000 C   0  0  0  0  0  0  0  0  0  0  0  0
  1  2  2  0
  2  3  1  0
  3  4  1  0
  2  5  1  0
  5  6  2  0
  6  7  1  0
  7  8  2  0
  8  9  1  0
  9 10  1  0
 10 11  1  0
 11 12  2  0
 11 13  1  0
 13 14  2  3
 14 15  1  0
 15 16  1  0
 16 17  2  0
 17 18  1  0
 18 19  2  0
 19 20  1  0
 20 21  2  0
 21 22  1  0
 22 23  2  3
 23 24  1  0
 13 25  1  0
 25 26  2  0
 26 27  1  0
 27 28  2  0
 28 29  1  0
 29 30  2  0
  8 31  1  0
 31 32  2  0
 32  5  1  0
 30 10  1  0
 22 14  1  0
 30 25  1  0
 21 16  1  0
M  END
>  <molecule_chembl_id>  (775) 
CHEMBL4797488

>  <canonical_smiles>  (775) 
O=C(NO)c1ccc(CN2C(=O)C(=C3Nc4ccccc4C3=NO)c3ccccc32)cc1

>  <pchembl_value_mean>  (775) 
6.69

>  <document_chembl_id>  (775) 
CHEMBL4699494

$$$$

     RDKit          2D

 38 40  0  0  0  0  0  0  0  0999 V2000
   -0.7500   -3.8971    0.0000 N   0  0  0  0  0  0  0  0  0  0  0  0
   -1.5000   -5.1962    0.0000 C   0  0  0  0  0  0  0  0  0  0  0  0
   -3.0000   -5.1962    0.0000 C   0  0  0  0  0  0  0  0  0  0  0  0
   -3.7500   -3.8971    0.0000 C   0  0  0  0  0  0  0  0  0  0  0  0
   -5.2500   -3.8971    0.0000 C   0  0  0  0  0  0  0  0  0  0  0  0
   -6.0000   -2.5981    0.0000 C   0  0  0  0  0  0  0  0  0  0  0  0
   -5.2500   -1.2990    0.0000 C   0  0  0  0  0  0  0  0  0  0  0  0
   -6.0000    0.0000    0.0000 O   0  0  0  0  0  0  0  0  0  0  0  0
   -3.7500   -1.2990    0.0000 C   0  0  0  0  0  0  0  0  0  0  0  0
   -3.0000   -2.5981    0.0000 C   0  0  0  0  0  0  0  0  0  0  0  0
   -0.7500   -6.4952    0.0000 C   0  0  0  0  0  0  0  0  0  0  0  0
   -1.5000   -7.7942    0.0000 O   0  0  0  0  0  0  0  0  0  0  0  0
    0.7500   -6.4952    0.0000 N   0  0  0  0  0  0  0  0  0  0  0  0
    1.5000   -7.7942    0.0000 C   0  0  0  0  0  0  0  0  0  0  0  0
    0.7500   -9.0933    0.0000 C   0  0  0  0  0  0  0  0  0  0  0  0
    1.5000  -10.3923    0.0000 C   0  0  0  0  0  0  0  0  0  0  0  0
    3.0000  -10.3923    0.0000 C   0  0  0  0  0  0  0  0  0  0  0  0
    3.7500   -9.0933    0.0000 C   0  0  0  0  0  0  0  0  0  0  0  0
    3.0000   -7.7942    0.0000 C   0  0  0  0  0  0  0  0  0  0  0  0
    3.7500   -6.4952    0.0000 C   0  0  0  0  0  0  0  0  0  0  0  0
    5.2500   -6.4952    0.0000 C   0  0  0  0  0  0  0  0  0  0  0  0
    6.0000   -5.1962    0.0000 C   0  0  0  0  0  0  0  0  0  0  0  0
    5.2500   -3.8971    0.0000 C   0  0  0  0  0  0  0  0  0  0  0  0
    6.0000   -2.5981    0.0000 N   0  0  0  0  0  0  0  0  0  0  0  0
    7.5000   -2.5981    0.0000 C   0  0  0  0  0  0  0  0  0  0  0  0
    8.2500   -3.8971    0.0000 O   0  0  0  0  0  0  0  0  0  0  0  0
    8.2500   -1.2990    0.0000 C   0  0  0  0  0  0  0  0  0  0  0  0
    9.7500   -1.2990    0.0000 C   0  0  0  0  0  0  0  0  0  0  0  0
   10.5000   -0.0000    0.0000 C   0  0  0  0  0  0  0  0  0  0  0  0
   12.0000   -0.0000    0.0000 C   0  0  0  0  0  0  0  0  0  0  0  0
   12.7500    1.2990    0.0000 C   0  0  0  0  0  0  0  0  0  0  0  0
   14.2500    1.2990    0.0000 C   0  0  0  0  0  0  0  0  0  0  0  0
   15.0000    2.5981    0.0000 C   0  0  0  0  0  0  0  0  0  0  0  0
   14.2500    3.8971    0.0000 O   0  0  0  0  0  0  0  0  0  0  0  0
   16.5000    2.5981    0.0000 N   0  0  0  0  0  0  0  0  0  0  0  0
   17.2500    3.8971    0.0000 O   0  0  0  0  0  0  0  0  0  0  0  0
    3.7500   -3.8971    0.0000 C   0  0  0  0  0  0  0  0  0  0  0  0
    3.0000   -5.1962    0.0000 C   0  0  0  0  0  0  0  0  0  0  0  0
  1  2  1  0
  2  3  1  0
  3  4  1  0
  4  5  2  0
  5  6  1  0
  6  7  2  0
  7  8  1  0
  7  9  1  0
  9 10  2  0
  2 11  1  0
 11 12  2  0
 11 13  1  0
 13 14  1  0
 14 15  2  0
 15 16  1  0
 16 17  2  0
 17 18  1  0
 18 19  2  0
 19 20  1  0
 20 21  2  0
 21 22  1  0
 22 23  2  0
 23 24  1  0
 24 25  1  0
 25 26  2  0
 25 27  1  0
 27 28  1  0
 28 29  1  0
 29 30  1  0
 30 31  1  0
 31 32  1  0
 32 33  1  0
 33 34  2  0
 33 35  1  0
 35 36  1  0
 23 37  1  0
 37 38  2  0
 10  4  1  0
 19 14  1  0
 38 20  1  0
M  END
>  <molecule_chembl_id>  (776) 
CHEMBL227170

>  <canonical_smiles>  (776) 
NC(Cc1ccc(O)cc1)C(=O)Nc1ccccc1-c1ccc(NC(=O)CCCCCCC(=O)NO)cc1

>  <pchembl_value_mean>  (776) 
6.69

>  <document_chembl_id>  (776) 
CHEMBL1145385

$$$$

     RDKit          2D

 25 28  0  0  0  0  0  0  0  0999 V2000
   -1.5000   -7.7942    0.0000 N   0  0  0  0  0  0  0  0  0  0  0  0
   -3.0000   -7.7942    0.0000 C   0  0  0  0  0  0  0  0  0  0  0  0
   -3.7500   -9.0933    0.0000 C   0  0  0  0  0  0  0  0  0  0  0  0
   -5.2500   -9.0933    0.0000 C   0  0  0  0  0  0  0  0  0  0  0  0
   -6.0000   -7.7942    0.0000 C   0  0  0  0  0  0  0  0  0  0  0  0
   -7.5000   -7.7942    0.0000 C   0  0  0  0  0  0  0  0  0  0  0  0
   -8.3817   -9.0078    0.0000 C   0  0  0  0  0  0  0  0  0  0  0  0
   -9.8083   -8.5442    0.0000 C   0  0  0  0  0  0  0  0  0  0  0  0
   -9.8083   -7.0442    0.0000 C   0  0  0  0  0  0  0  0  0  0  0  0
   -8.3817   -6.5807    0.0000 S   0  0  0  0  0  0  0  0  0  0  0  0
   -5.2500   -6.4952    0.0000 C   0  0  0  0  0  0  0  0  0  0  0  0
   -3.7500   -6.4952    0.0000 C   0  0  0  0  0  0  0  0  0  0  0  0
   -3.0000   -5.1962    0.0000 N   0  0  0  0  0  0  0  0  0  0  0  0
   -1.5000   -5.1962    0.0000 C   0  0  0  0  0  0  0  0  0  0  0  0
   -0.7500   -6.4952    0.0000 O   0  0  0  0  0  0  0  0  0  0  0  0
   -0.7500   -3.8971    0.0000 C   0  0  0  0  0  0  0  0  0  0  0  0
    0.7500   -3.8971    0.0000 C   0  0  0  0  0  0  0  0  0  0  0  0
    1.5000   -2.5981    0.0000 C   0  0  0  0  0  0  0  0  0  0  0  0
    0.7500   -1.2990    0.0000 C   0  0  0  0  0  0  0  0  0  0  0  0
    1.5000    0.0000    0.0000 N   0  0  0  0  0  0  0  0  0  0  0  0
    0.7500    1.2990    0.0000 C   0  0  0  0  0  0  0  0  0  0  0  0
   -0.7500    1.2990    0.0000 C   0  0  0  0  0  0  0  0  0  0  0  0
   -1.5000    0.0000    0.0000 N   0  0  0  0  0  0  0  0  0  0  0  0
   -0.7500   -1.2990    0.0000 C   0  0  0  0  0  0  0  0  0  0  0  0
   -1.5000   -2.5981    0.0000 C   0  0  0  0  0  0  0  0  0  0  0  0
  1  2  1  0
  2  3  2  0
  3  4  1  0
  4  5  2  0
  5  6  1  0
  6  7  2  0
  7  8  1  0
  8  9  2  0
  9 10  1  0
  5 11  1  0
 11 12  2  0
 12 13  1  0
 13 14  1  0
 14 15  2  0
 14 16  1  0
 16 17  2  0
 17 18  1  0
 18 19  2  0
 19 20  1  0
 20 21  2  0
 21 22  1  0
 22 23  2  0
 23 24  1  0
 24 25  2  0
 12  2  1  0
 25 16  1  0
 10  6  1  0
 24 19  1  0
M  END
>  <molecule_chembl_id>  (777) 
CHEMBL393242

>  <canonical_smiles>  (777) 
Nc1ccc(-c2cccs2)cc1NC(=O)c1ccc2nccnc2c1

>  <pchembl_value_mean>  (777) 
6.7

>  <document_chembl_id>  (777) 
CHEMBL1138236

$$$$

     RDKit          2D

 36 39  0  0  0  0  0  0  0  0999 V2000
  -12.7500  -11.6913    0.0000 O   0  0  0  0  0  0  0  0  0  0  0  0
  -12.0000  -10.3923    0.0000 C   0  0  0  0  0  0  0  0  0  0  0  0
  -10.5000  -10.3923    0.0000 N   0  0  0  0  0  0  0  0  0  0  0  0
   -9.7500  -11.6913    0.0000 O   0  0  0  0  0  0  0  0  0  0  0  0
   -9.7500   -9.0933    0.0000 C   0  0  0  0  0  0  0  0  0  0  0  0
   -8.2500   -9.0933    0.0000 C   0  0  0  0  0  0  0  0  0  0  0  0
   -7.5000   -7.7942    0.0000 C   0  0  0  0  0  0  0  0  0  0  0  0
   -6.0000   -7.7942    0.0000 C   0  0  0  0  0  0  0  0  0  0  0  0
   -5.2500   -6.4952    0.0000 C   0  0  0  0  0  0  0  0  0  0  0  0
   -3.7500   -6.4952    0.0000 C   0  0  0  0  0  0  0  0  0  0  0  0
   -3.0000   -5.1962    0.0000 C   0  0  0  0  0  0  0  0  0  0  0  0
   -3.7500   -3.8971    0.0000 O   0  0  0  0  0  0  0  0  0  0  0  0
   -1.5000   -5.1962    0.0000 N   0  0  0  0  0  0  0  0  0  0  0  0
   -0.7500   -3.8971    0.0000 C   0  0  0  0  0  0  0  0  0  0  0  0
    0.7500   -3.8971    0.0000 C   0  0  0  0  0  0  0  0  0  0  0  0
    1.5000   -2.5981    0.0000 N   0  0  0  0  0  0  0  0  0  0  0  0
    0.7500   -1.2990    0.0000 C   0  0  0  0  0  0  0  0  0  0  0  0
    1.5000    0.0000    0.0000 C   0  0  0  0  0  0  0  0  0  0  0  0
    0.7500    1.2990    0.0000 C   0  0  0  0  0  0  0  0  0  0  0  0
   -0.7500    1.2990    0.0000 C   0  0  0  0  0  0  0  0  0  0  0  0
   -1.5000    0.0000    0.0000 C   0  0  0  0  0  0  0  0  0  0  0  0
   -0.7500   -1.2990    0.0000 C   0  0  0  0  0  0  0  0  0  0  0  0
   -1.5000   -2.5981    0.0000 C   0  0  0  0  0  0  0  0  0  0  0  0
   -3.0000   -7.7942    0.0000 C   0  0  0  0  0  0  0  0  0  0  0  0
   -1.5000   -7.7942    0.0000 O   0  0  0  0  0  0  0  0  0  0  0  0
   -3.7500   -9.0933    0.0000 N   0  0  0  0  0  0  0  0  0  0  0  0
   -3.0000  -10.3923    0.0000 C   0  0  0  0  0  0  0  0  0  0  0  0
   -1.5000  -10.3923    0.0000 C   0  0  0  0  0  0  0  0  0  0  0  0
   -0.7500  -11.6913    0.0000 N   0  0  0  0  0  0  0  0  0  0  0  0
   -1.5000  -12.9904    0.0000 C   0  0  0  0  0  0  0  0  0  0  0  0
   -0.7500  -14.2894    0.0000 C   0  0  0  0  0  0  0  0  0  0  0  0
   -1.5000  -15.5885    0.0000 C   0  0  0  0  0  0  0  0  0  0  0  0
   -3.0000  -15.5885    0.0000 C   0  0  0  0  0  0  0  0  0  0  0  0
   -3.7500  -14.2894    0.0000 C   0  0  0  0  0  0  0  0  0  0  0  0
   -3.0000  -12.9904    0.0000 C   0  0  0  0  0  0  0  0  0  0  0  0
   -3.7500  -11.6913    0.0000 C   0  0  0  0  0  0  0  0  0  0  0  0
  1  2  2  0
  2  3  1  0
  3  4  1  0
  3  5  1  0
  5  6  1  0
  6  7  1  0
  7  8  1  0
  8  9  1  0
  9 10  1  0
 10 11  1  0
 11 12  2  0
 11 13  1  0
 13 14  1  0
 14 15  2  0
 15 16  1  0
 16 17  2  0
 17 18  1  0
 18 19  2  0
 19 20  1  0
 20 21  2  0
 21 22  1  0
 22 23  2  0
 10 24  1  0
 24 25  2  0
 24 26  1  0
 26 27  1  0
 27 28  2  0
 28 29  1  0
 29 30  2  0
 30 31  1  0
 31 32  2  0
 32 33  1  0
 33 34  2  0
 34 35  1  0
 35 36  2  0
 23 14  1  0
 36 27  1  0
 22 17  1  0
 35 30  1  0
M  END
>  <molecule_chembl_id>  (778) 
CHEMBL140525

>  <canonical_smiles>  (778) 
O=CN(O)CCCCCC(C(=O)Nc1cnc2ccccc2c1)C(=O)Nc1cnc2ccccc2c1

>  <pchembl_value_mean>  (778) 
6.7

>  <document_chembl_id>  (778) 
CHEMBL1137945

$$$$

     RDKit          2D

 33 35  0  0  0  0  0  0  0  0999 V2000
    5.2500   -1.2990    0.0000 C   0  0  0  0  0  0  0  0  0  0  0  0
    3.7500   -1.2990    0.0000 C   0  0  0  0  0  0  0  0  0  0  0  0
    3.0000   -2.5981    0.0000 O   0  0  0  0  0  0  0  0  0  0  0  0
    3.0000    0.0000    0.0000 N   0  0  0  0  0  0  0  0  0  0  0  0
    1.5000    0.0000    0.0000 C   0  0  0  0  0  0  0  0  0  0  0  0
    0.7500   -1.2990    0.0000 C   0  0  0  0  0  0  0  0  0  0  0  0
   -0.7500   -1.2990    0.0000 C   0  0  0  0  0  0  0  0  0  0  0  0
   -1.5000    0.0000    0.0000 C   0  0  0  0  0  0  0  0  0  0  0  0
   -0.7500    1.2990    0.0000 C   0  0  0  0  0  0  0  0  0  0  0  0
   -1.5000    2.5981    0.0000 C   0  0  0  0  0  0  0  0  0  0  0  0
   -2.9918    2.7549    0.0000 C   0  0  0  0  0  0  0  0  0  0  0  0
   -3.3037    4.2221    0.0000 S   0  0  0  0  0  0  0  0  0  0  0  0
   -2.0046    4.9721    0.0000 C   0  0  0  0  0  0  0  0  0  0  0  0
   -1.8478    6.4639    0.0000 N   0  0  0  0  0  0  0  0  0  0  0  0
   -0.4775    7.0740    0.0000 C   0  0  0  0  0  0  0  0  0  0  0  0
    0.7360    6.1923    0.0000 O   0  0  0  0  0  0  0  0  0  0  0  0
   -0.3207    8.5658    0.0000 C   0  0  0  0  0  0  0  0  0  0  0  0
    1.0496    9.1759    0.0000 C   0  0  0  0  0  0  0  0  0  0  0  0
    1.2064   10.6676    0.0000 C   0  0  0  0  0  0  0  0  0  0  0  0
    2.5767   11.2778    0.0000 C   0  0  0  0  0  0  0  0  0  0  0  0
    2.7335   12.7695    0.0000 C   0  0  0  0  0  0  0  0  0  0  0  0
    4.1038   13.3796    0.0000 C   0  0  0  0  0  0  0  0  0  0  0  0
    5.3174   12.4980    0.0000 O   0  0  0  0  0  0  0  0  0  0  0  0
    4.2606   14.8714    0.0000 N   0  0  0  0  0  0  0  0  0  0  0  0
    5.6309   15.4815    0.0000 C   0  0  0  0  0  0  0  0  0  0  0  0
    6.8445   14.5999    0.0000 C   0  0  0  0  0  0  0  0  0  0  0  0
    8.2148   15.2100    0.0000 C   0  0  0  0  0  0  0  0  0  0  0  0
    8.3716   16.7017    0.0000 C   0  0  0  0  0  0  0  0  0  0  0  0
    7.1581   17.5834    0.0000 C   0  0  0  0  0  0  0  0  0  0  0  0
    5.7877   16.9733    0.0000 C   0  0  0  0  0  0  0  0  0  0  0  0
    4.5742   17.8550    0.0000 N   0  0  0  0  0  0  0  0  0  0  0  0
   -0.8899    3.9684    0.0000 N   0  0  0  0  0  0  0  0  0  0  0  0
    0.7500    1.2990    0.0000 C   0  0  0  0  0  0  0  0  0  0  0  0
  1  2  1  0
  2  3  2  0
  2  4  1  0
  4  5  1  0
  5  6  2  0
  6  7  1  0
  7  8  2  0
  8  9  1  0
  9 10  1  0
 10 11  2  0
 11 12  1  0
 12 13  1  0
 13 14  1  0
 14 15  1  0
 15 16  2  0
 15 17  1  0
 17 18  1  0
 18 19  1  0
 19 20  1  0
 20 21  1  0
 21 22  1  0
 22 23  2  0
 22 24  1  0
 24 25  1  0
 25 26  2  0
 26 27  1  0
 27 28  2  0
 28 29  1  0
 29 30  2  0
 30 31  1  0
 13 32  2  0
  9 33  2  0
 33  5  1  0
 32 10  1  0
 30 25  1  0
M  END
>  <molecule_chembl_id>  (779) 
CHEMBL4548759

>  <canonical_smiles>  (779) 
CC(=O)Nc1cccc(-c2csc(NC(=O)CCCCCC(=O)Nc3ccccc3N)n2)c1

>  <pchembl_value_mean>  (779) 
6.7

>  <document_chembl_id>  (779) 
CHEMBL4400533

$$$$

     RDKit          2D

 25 27  0  0  0  0  0  0  0  0999 V2000
    6.0000    0.0000    0.0000 O   0  0  0  0  0  0  0  0  0  0  0  0
    5.2500   -1.2990    0.0000 C   0  0  0  0  0  0  0  0  0  0  0  0
    3.7500   -1.2990    0.0000 C   0  0  0  0  0  0  0  0  0  0  0  0
    3.0000    0.0000    0.0000 C   0  0  0  0  0  0  0  0  0  0  0  0
    1.5000    0.0000    0.0000 C   0  0  0  0  0  0  0  0  0  0  0  0
    0.7500   -1.2990    0.0000 C   0  0  0  0  0  0  0  0  0  0  0  0
   -0.7500   -1.2990    0.0000 C   0  0  0  0  0  0  0  0  0  0  0  0
   -1.5000    0.0000    0.0000 C   0  0  0  0  0  0  0  0  0  0  0  0
   -0.7500    1.2990    0.0000 C   0  0  0  0  0  0  0  0  0  0  0  0
   -1.7537    2.4138    0.0000 C   0  0  0  0  0  0  0  0  0  0  0  0
   -3.1240    1.8037    0.0000 C   0  0  0  0  0  0  0  0  0  0  0  0
   -2.9672    0.3119    0.0000 N   0  0  0  0  0  0  0  0  0  0  0  0
   -4.0819   -0.6918    0.0000 S   0  0  0  0  0  0  0  0  0  0  0  0
   -3.0782   -1.8065    0.0000 O   0  0  0  0  0  0  0  0  0  0  0  0
   -5.0856    0.4229    0.0000 O   0  0  0  0  0  0  0  0  0  0  0  0
   -5.1967   -1.6955    0.0000 C   0  0  0  0  0  0  0  0  0  0  0  0
   -6.6232   -1.2320    0.0000 C   0  0  0  0  0  0  0  0  0  0  0  0
   -7.7380   -2.2357    0.0000 C   0  0  0  0  0  0  0  0  0  0  0  0
   -7.4261   -3.7029    0.0000 C   0  0  0  0  0  0  0  0  0  0  0  0
   -8.5408   -4.7066    0.0000 F   0  0  0  0  0  0  0  0  0  0  0  0
   -5.9995   -4.1664    0.0000 C   0  0  0  0  0  0  0  0  0  0  0  0
   -4.8848   -3.1627    0.0000 C   0  0  0  0  0  0  0  0  0  0  0  0
    0.7500    1.2990    0.0000 C   0  0  0  0  0  0  0  0  0  0  0  0
    6.0000   -2.5981    0.0000 N   0  0  0  0  0  0  0  0  0  0  0  0
    7.5000   -2.5981    0.0000 O   0  0  0  0  0  0  0  0  0  0  0  0
  1  2  2  0
  2  3  1  0
  3  4  2  3
  4  5  1  0
  5  6  2  0
  6  7  1  0
  7  8  2  0
  8  9  1  0
  9 10  1  0
 10 11  2  0
 11 12  1  0
 12 13  1  0
 13 14  2  0
 13 15  2  0
 13 16  1  0
 16 17  2  0
 17 18  1  0
 18 19  2  0
 19 20  1  0
 19 21  1  0
 21 22  2  0
  9 23  2  0
  2 24  1  0
 24 25  1  0
 23  5  1  0
 12  8  1  0
 22 16  1  0
M  END
>  <molecule_chembl_id>  (780) 
CHEMBL2048751

>  <canonical_smiles>  (780) 
O=C(C=Cc1ccc2c(ccn2S(=O)(=O)c2ccc(F)cc2)c1)NO

>  <pchembl_value_mean>  (780) 
6.7

>  <document_chembl_id>  (780) 
CHEMBL2046324

$$$$

     RDKit          2D

 28 30  0  0  0  0  0  0  0  0999 V2000
    3.7500   -1.2990    0.0000 C   0  0  0  0  0  0  0  0  0  0  0  0
    3.0000    0.0000    0.0000 O   0  0  0  0  0  0  0  0  0  0  0  0
    1.5000    0.0000    0.0000 C   0  0  0  0  0  0  0  0  0  0  0  0
    0.7500   -1.2990    0.0000 C   0  0  0  0  0  0  0  0  0  0  0  0
   -0.7500   -1.2990    0.0000 C   0  0  0  0  0  0  0  0  0  0  0  0
   -1.5000    0.0000    0.0000 C   0  0  0  0  0  0  0  0  0  0  0  0
   -3.0000    0.0000    0.0000 N   0  0  0  0  0  0  0  0  0  0  0  0
   -3.7500    1.2990    0.0000 C   0  0  0  0  0  0  0  0  0  0  0  0
   -5.2500    1.2990    0.0000 C   0  0  0  0  0  0  0  0  0  0  0  0
   -6.0000    2.5981    0.0000 C   0  0  0  0  0  0  0  0  0  0  0  0
   -7.5000    2.5981    0.0000 C   0  0  0  0  0  0  0  0  0  0  0  0
   -8.2500    1.2990    0.0000 C   0  0  0  0  0  0  0  0  0  0  0  0
   -9.7500    1.2990    0.0000 C   0  0  0  0  0  0  0  0  0  0  0  0
  -10.5000    0.0000    0.0000 O   0  0  0  0  0  0  0  0  0  0  0  0
  -10.5000    2.5981    0.0000 N   0  0  0  0  0  0  0  0  0  0  0  0
  -12.0000    2.5981    0.0000 C   0  0  0  0  0  0  0  0  0  0  0  0
  -12.7500    3.8971    0.0000 C   0  0  0  0  0  0  0  0  0  0  0  0
  -14.2500    3.8971    0.0000 C   0  0  0  0  0  0  0  0  0  0  0  0
  -15.0000    2.5981    0.0000 C   0  0  0  0  0  0  0  0  0  0  0  0
  -14.2500    1.2990    0.0000 C   0  0  0  0  0  0  0  0  0  0  0  0
  -12.7500    1.2990    0.0000 C   0  0  0  0  0  0  0  0  0  0  0  0
  -12.0000    0.0000    0.0000 O   0  0  0  0  0  0  0  0  0  0  0  0
   -7.5000    0.0000    0.0000 C   0  0  0  0  0  0  0  0  0  0  0  0
   -6.0000    0.0000    0.0000 C   0  0  0  0  0  0  0  0  0  0  0  0
   -0.7500    1.2990    0.0000 C   0  0  0  0  0  0  0  0  0  0  0  0
    0.7500    1.2990    0.0000 C   0  0  0  0  0  0  0  0  0  0  0  0
    1.5000    2.5981    0.0000 O   0  0  0  0  0  0  0  0  0  0  0  0
    0.7500    3.8971    0.0000 C   0  0  0  0  0  0  0  0  0  0  0  0
  1  2  1  0
  2  3  1  0
  3  4  2  0
  4  5  1  0
  5  6  2  0
  6  7  1  0
  7  8  1  0
  8  9  1  0
  9 10  2  0
 10 11  1  0
 11 12  2  0
 12 13  1  0
 13 14  2  0
 13 15  1  0
 15 16  1  0
 16 17  2  0
 17 18  1  0
 18 19  2  0
 19 20  1  0
 20 21  2  0
 21 22  1  0
 12 23  1  0
 23 24  2  0
  6 25  1  0
 25 26  2  0
 26 27  1  0
 27 28  1  0
 26  3  1  0
 24  9  1  0
 21 16  1  0
M  END
>  <molecule_chembl_id>  (781) 
CHEMBL235411

>  <canonical_smiles>  (781) 
COc1ccc(NCc2ccc(C(=O)Nc3ccccc3O)cc2)cc1OC

>  <pchembl_value_mean>  (781) 
6.7

>  <document_chembl_id>  (781) 
CHEMBL1138236

$$$$

     RDKit          2D

 33 35  0  0  0  0  0  0  0  0999 V2000
    3.7500   -1.2990    0.0000 C   0  0  0  0  0  0  0  0  0  0  0  0
    3.0000    0.0000    0.0000 N   0  0  0  0  0  0  0  0  0  0  0  0
    3.7500    1.2990    0.0000 C   0  0  0  0  0  0  0  0  0  0  0  0
    1.5000    0.0000    0.0000 C   0  0  0  0  0  0  0  0  0  0  0  0
    0.7500   -1.2990    0.0000 C   0  0  0  0  0  0  0  0  0  0  0  0
   -0.7500   -1.2990    0.0000 C   0  0  0  0  0  0  0  0  0  0  0  0
   -1.5000    0.0000    0.0000 C   0  0  0  0  0  0  0  0  0  0  0  0
   -3.0000    0.0000    0.0000 C   0  0  0  0  0  0  0  0  0  0  0  0
   -3.7500   -1.2990    0.0000 O   0  0  0  0  0  0  0  0  0  0  0  0
   -3.7500    1.2990    0.0000 N   0  0  0  0  0  0  0  0  0  0  0  0
   -3.0000    2.5981    0.0000 C   0  0  0  0  0  0  0  0  0  0  0  0
   -3.7500    3.8971    0.0000 C   0  0  0  0  0  0  0  0  0  0  0  0
   -5.2500    3.8971    0.0000 O   0  0  0  0  0  0  0  0  0  0  0  0
   -3.0000    5.1962    0.0000 N   0  0  0  0  0  0  0  0  0  0  0  0
   -3.7500    6.4952    0.0000 C   0  0  0  0  0  0  0  0  0  0  0  0
   -3.0000    7.7942    0.0000 C   0  0  0  0  0  0  0  0  0  0  0  0
   -3.7500    9.0933    0.0000 C   0  0  0  0  0  0  0  0  0  0  0  0
   -5.2500    9.0933    0.0000 C   0  0  0  0  0  0  0  0  0  0  0  0
   -6.0000    7.7942    0.0000 C   0  0  0  0  0  0  0  0  0  0  0  0
   -5.2500    6.4952    0.0000 C   0  0  0  0  0  0  0  0  0  0  0  0
   -5.2500    1.2990    0.0000 C   0  0  0  0  0  0  0  0  0  0  0  0
   -6.0000    0.0000    0.0000 C   0  0  0  0  0  0  0  0  0  0  0  0
   -7.5000   -0.0000    0.0000 C   0  0  0  0  0  0  0  0  0  0  0  0
   -8.2500   -1.2990    0.0000 C   0  0  0  0  0  0  0  0  0  0  0  0
   -7.5000   -2.5981    0.0000 C   0  0  0  0  0  0  0  0  0  0  0  0
   -8.2500   -3.8971    0.0000 C   0  0  0  0  0  0  0  0  0  0  0  0
   -7.5000   -5.1962    0.0000 O   0  0  0  0  0  0  0  0  0  0  0  0
   -9.7500   -3.8971    0.0000 N   0  0  0  0  0  0  0  0  0  0  0  0
  -10.5000   -5.1962    0.0000 O   0  0  0  0  0  0  0  0  0  0  0  0
   -6.0000   -2.5981    0.0000 C   0  0  0  0  0  0  0  0  0  0  0  0
   -5.2500   -1.2990    0.0000 C   0  0  0  0  0  0  0  0  0  0  0  0
   -0.7500    1.2990    0.0000 C   0  0  0  0  0  0  0  0  0  0  0  0
    0.7500    1.2990    0.0000 C   0  0  0  0  0  0  0  0  0  0  0  0
  1  2  1  0
  2  3  1  0
  2  4  1  0
  4  5  2  0
  5  6  1  0
  6  7  2  0
  7  8  1  0
  8  9  2  0
  8 10  1  0
 10 11  1  0
 11 12  1  0
 12 13  2  0
 12 14  1  0
 14 15  1  0
 15 16  1  0
 16 17  1  0
 17 18  1  0
 18 19  1  0
 19 20  1  0
 10 21  1  0
 21 22  1  0
 22 23  2  0
 23 24  1  0
 24 25  2  0
 25 26  1  0
 26 27  2  0
 26 28  1  0
 28 29  1  0
 25 30  1  0
 30 31  2  0
  7 32  1  0
 32 33  2  0
 33  4  1  0
 20 15  1  0
 31 22  1  0
M  END
>  <molecule_chembl_id>  (782) 
CHEMBL4063658

>  <canonical_smiles>  (782) 
CN(C)c1ccc(C(=O)N(CC(=O)NC2CCCCC2)Cc2ccc(C(=O)NO)cc2)cc1

>  <pchembl_value_mean>  (782) 
6.7

>  <document_chembl_id>  (782) 
CHEMBL4673207

$$$$

     RDKit          2D

 44 49  0  0  0  0  0  0  0  0999 V2000
    3.7500    1.2990    0.0000 O   0  0  0  0  0  0  0  0  0  0  0  0
    3.0000    0.0000    0.0000 C   0  0  0  0  0  0  0  0  0  0  0  0
    3.7500   -1.2990    0.0000 N   0  0  0  0  0  0  0  0  0  0  0  0
    5.2500   -1.2990    0.0000 O   0  0  0  0  0  0  0  0  0  0  0  0
    1.5000    0.0000    0.0000 C   0  0  0  0  0  0  0  0  0  0  0  0
    0.7500   -1.2990    0.0000 C   0  0  0  0  0  0  0  0  0  0  0  0
   -0.7500   -1.2990    0.0000 C   0  0  0  0  0  0  0  0  0  0  0  0
   -1.5000    0.0000    0.0000 C   0  0  0  0  0  0  0  0  0  0  0  0
   -3.0000    0.0000    0.0000 C   0  0  0  0  0  0  0  0  0  0  0  0
   -3.7500    1.2990    0.0000 N   0  0  0  0  0  0  0  0  0  0  0  0
   -5.2500    1.2990    0.0000 C   0  0  0  0  0  0  0  0  0  0  0  0
   -6.0000    0.0000    0.0000 O   0  0  0  0  0  0  0  0  0  0  0  0
   -6.0000    2.5981    0.0000 C   0  0  0  0  0  0  0  0  0  0  0  0
   -5.2500    3.8971    0.0000 C   0  0  0  0  0  0  0  0  0  0  0  0
   -6.0000    5.1962    0.0000 C   0  0  0  0  0  0  0  0  0  0  0  0
   -7.5000    5.1962    0.0000 C   0  0  0  0  0  0  0  0  0  0  0  0
   -8.2500    6.4952    0.0000 C   0  0  0  0  0  0  0  0  0  0  0  0
   -9.7418    6.6520    0.0000 C   0  0  0  0  0  0  0  0  0  0  0  0
  -10.0537    8.1192    0.0000 S   0  0  0  0  0  0  0  0  0  0  0  0
   -8.7546    8.8692    0.0000 C   0  0  0  0  0  0  0  0  0  0  0  0
   -8.5978   10.3610    0.0000 N   0  0  0  0  0  0  0  0  0  0  0  0
   -9.7125   11.3647    0.0000 N   0  0  0  0  0  0  0  0  0  0  0  0
   -9.1024   12.7350    0.0000 C   0  0  0  0  0  0  0  0  0  0  0  0
   -9.8524   14.0340    0.0000 C   0  0  0  0  0  0  0  0  0  0  0  0
   -9.1024   15.3331    0.0000 C   0  0  0  0  0  0  0  0  0  0  0  0
   -9.8524   16.6321    0.0000 C   0  0  0  0  0  0  0  0  0  0  0  0
  -11.3524   16.6321    0.0000 C   0  0  0  0  0  0  0  0  0  0  0  0
  -12.1024   15.3331    0.0000 C   0  0  0  0  0  0  0  0  0  0  0  0
  -11.3524   14.0340    0.0000 C   0  0  0  0  0  0  0  0  0  0  0  0
   -7.6106   12.5782    0.0000 C   0  0  0  0  0  0  0  0  0  0  0  0
   -6.6070   13.6929    0.0000 N   0  0  0  0  0  0  0  0  0  0  0  0
   -5.1397   13.3811    0.0000 N   0  0  0  0  0  0  0  0  0  0  0  0
   -4.1360   14.4958    0.0000 C   0  0  0  0  0  0  0  0  0  0  0  0
   -4.4479   15.9630    0.0000 N   0  0  0  0  0  0  0  0  0  0  0  0
   -3.1489   16.7130    0.0000 C   0  0  0  0  0  0  0  0  0  0  0  0
   -2.0341   15.7093    0.0000 C   0  0  0  0  0  0  0  0  0  0  0  0
   -2.6443   14.3390    0.0000 S   0  0  0  0  0  0  0  0  0  0  0  0
   -7.2988   11.1110    0.0000 C   0  0  0  0  0  0  0  0  0  0  0  0
   -5.9285   10.5009    0.0000 O   0  0  0  0  0  0  0  0  0  0  0  0
   -7.6399    7.8655    0.0000 N   0  0  0  0  0  0  0  0  0  0  0  0
   -8.2500    3.8971    0.0000 C   0  0  0  0  0  0  0  0  0  0  0  0
   -7.5000    2.5981    0.0000 C   0  0  0  0  0  0  0  0  0  0  0  0
   -0.7500    1.2990    0.0000 C   0  0  0  0  0  0  0  0  0  0  0  0
    0.7500    1.2990    0.0000 C   0  0  0  0  0  0  0  0  0  0  0  0
  1  2  2  0
  2  3  1  0
  3  4  1  0
  2  5  1  0
  5  6  2  0
  6  7  1  0
  7  8  2  0
  8  9  1  0
  9 10  1  0
 10 11  1  0
 11 12  2  0
 11 13  1  0
 13 14  2  0
 14 15  1  0
 15 16  2  0
 16 17  1  0
 17 18  2  0
 18 19  1  0
 19 20  1  0
 20 21  1  0
 21 22  1  0
 22 23  2  0
 23 24  1  0
 24 25  2  0
 25 26  1  0
 26 27  2  0
 27 28  1  0
 28 29  2  0
 23 30  1  0
 30 31  2  3
 31 32  1  0
 32 33  1  0
 33 34  2  0
 34 35  1  0
 35 36  2  0
 36 37  1  0
 30 38  1  0
 38 39  2  0
 20 40  2  0
 16 41  1  0
 41 42  2  0
  8 43  1  0
 43 44  2  0
 44  5  1  0
 42 13  1  0
 40 17  1  0
 38 21  1  0
 29 24  1  0
 37 33  1  0
M  END
>  <molecule_chembl_id>  (783) 
CHEMBL4794290

>  <canonical_smiles>  (783) 
O=C(NO)c1ccc(CNC(=O)c2ccc(-c3csc(N4N=C(c5ccccc5)C(=NNc5nccs5)C4=O)n3)cc2)cc1

>  <pchembl_value_mean>  (783) 
6.7

>  <document_chembl_id>  (783) 
CHEMBL4665844

$$$$

     RDKit          2D

 22 24  0  0  0  0  0  0  0  0999 V2000
   -0.7500   -3.8971    0.0000 O   0  0  0  0  0  0  0  0  0  0  0  0
    0.7500   -3.8971    0.0000 C   0  0  0  0  0  0  0  0  0  0  0  0
    1.5000   -2.5981    0.0000 N   0  0  0  0  0  0  0  0  0  0  0  0
    0.7500   -1.2990    0.0000 C   0  0  0  0  0  0  0  0  0  0  0  0
    1.5000    0.0000    0.0000 C   0  0  0  0  0  0  0  0  0  0  0  0
    0.7500    1.2990    0.0000 C   0  0  0  0  0  0  0  0  0  0  0  0
    1.5000    2.5981    0.0000 C   0  0  0  0  0  0  0  0  0  0  0  0
    3.0000    2.5981    0.0000 C   0  0  0  0  0  0  0  0  0  0  0  0
    3.7500    3.8971    0.0000 C   0  0  0  0  0  0  0  0  0  0  0  0
    3.0000    5.1962    0.0000 C   0  0  0  0  0  0  0  0  0  0  0  0
    1.5000    5.1962    0.0000 C   0  0  0  0  0  0  0  0  0  0  0  0
    0.7500    3.8971    0.0000 C   0  0  0  0  0  0  0  0  0  0  0  0
   -0.7500    1.2990    0.0000 C   0  0  0  0  0  0  0  0  0  0  0  0
   -1.5000    0.0000    0.0000 C   0  0  0  0  0  0  0  0  0  0  0  0
   -0.7500   -1.2990    0.0000 C   0  0  0  0  0  0  0  0  0  0  0  0
   -1.5000   -2.5981    0.0000 O   0  0  0  0  0  0  0  0  0  0  0  0
    1.5000   -5.1962    0.0000 C   0  0  0  0  0  0  0  0  0  0  0  0
    0.7500   -6.4952    0.0000 C   0  0  0  0  0  0  0  0  0  0  0  0
    1.5000   -7.7942    0.0000 C   0  0  0  0  0  0  0  0  0  0  0  0
    3.0000   -7.7942    0.0000 C   0  0  0  0  0  0  0  0  0  0  0  0
    3.7500   -6.4952    0.0000 C   0  0  0  0  0  0  0  0  0  0  0  0
    3.0000   -5.1962    0.0000 C   0  0  0  0  0  0  0  0  0  0  0  0
  1  2  2  0
  2  3  1  0
  3  4  1  0
  4  5  2  0
  5  6  1  0
  6  7  1  0
  7  8  2  0
  8  9  1  0
  9 10  2  0
 10 11  1  0
 11 12  2  0
  6 13  2  0
 13 14  1  0
 14 15  2  0
 15 16  1  0
  2 17  1  0
 17 18  2  0
 18 19  1  0
 19 20  2  0
 20 21  1  0
 21 22  2  0
 15  4  1  0
 22 17  1  0
 12  7  1  0
M  END
>  <molecule_chembl_id>  (784) 
CHEMBL269935

>  <canonical_smiles>  (784) 
O=C(Nc1cc(-c2ccccc2)ccc1O)c1ccccc1

>  <pchembl_value_mean>  (784) 
6.7

>  <document_chembl_id>  (784) 
CHEMBL1143185

$$$$

     RDKit          2D

 33 37  0  0  0  0  0  0  0  0999 V2000
   -8.5256    0.3621    0.0000 O   0  0  0  0  0  0  0  0  0  0  0  0
   -7.0990    0.8256    0.0000 C   0  0  0  0  0  0  0  0  0  0  0  0
   -6.7871    2.2929    0.0000 N   0  0  0  0  0  0  0  0  0  0  0  0
   -7.9018    3.2966    0.0000 O   0  0  0  0  0  0  0  0  0  0  0  0
   -5.9843   -0.1781    0.0000 C   0  0  0  0  0  0  0  0  0  0  0  0
   -4.5577    0.2855    0.0000 C   0  0  0  0  0  0  0  0  0  0  0  0
   -3.4430   -0.7182    0.0000 C   0  0  0  0  0  0  0  0  0  0  0  0
   -3.7548   -2.1855    0.0000 C   0  0  0  0  0  0  0  0  0  0  0  0
   -2.6401   -3.1891    0.0000 C   0  0  0  0  0  0  0  0  0  0  0  0
   -1.2135   -2.7256    0.0000 N   0  0  0  0  0  0  0  0  0  0  0  0
   -0.0000   -3.6073    0.0000 C   0  0  0  0  0  0  0  0  0  0  0  0
    0.0000   -5.1073    0.0000 O   0  0  0  0  0  0  0  0  0  0  0  0
    1.2135   -2.7256    0.0000 C   0  0  0  0  0  0  0  0  0  0  0  0
    2.6401   -3.1891    0.0000 C   0  0  0  0  0  0  0  0  0  0  0  0
    3.1036   -4.6157    0.0000 N   0  0  0  0  0  0  0  0  0  0  0  0
    4.6036   -4.6157    0.0000 C   0  0  0  0  0  0  0  0  0  0  0  0
    5.6073   -5.7305    0.0000 C   0  0  0  0  0  0  0  0  0  0  0  0
    7.0746   -5.4186    0.0000 C   0  0  0  0  0  0  0  0  0  0  0  0
    7.5381   -3.9920    0.0000 C   0  0  0  0  0  0  0  0  0  0  0  0
    6.5344   -2.8773    0.0000 C   0  0  0  0  0  0  0  0  0  0  0  0
    5.0672   -3.1891    0.0000 C   0  0  0  0  0  0  0  0  0  0  0  0
    3.8536   -2.3075    0.0000 C   0  0  0  0  0  0  0  0  0  0  0  0
    3.8536   -0.8075    0.0000 N   0  0  0  0  0  0  0  0  0  0  0  0
    5.1527   -0.0575    0.0000 O   0  0  0  0  0  0  0  0  0  0  0  0
    0.7500   -1.2990    0.0000 C   0  0  0  0  0  0  0  0  0  0  0  0
    1.5000    0.0000    0.0000 C   0  0  0  0  0  0  0  0  0  0  0  0
    0.7500    1.2990    0.0000 C   0  0  0  0  0  0  0  0  0  0  0  0
    1.5000    2.5981    0.0000 F   0  0  0  0  0  0  0  0  0  0  0  0
   -0.7500    1.2990    0.0000 C   0  0  0  0  0  0  0  0  0  0  0  0
   -1.5000    0.0000    0.0000 C   0  0  0  0  0  0  0  0  0  0  0  0
   -0.7500   -1.2990    0.0000 C   0  0  0  0  0  0  0  0  0  0  0  0
   -5.1814   -2.6490    0.0000 C   0  0  0  0  0  0  0  0  0  0  0  0
   -6.2961   -1.6453    0.0000 C   0  0  0  0  0  0  0  0  0  0  0  0
  1  2  2  0
  2  3  1  0
  3  4  1  0
  2  5  1  0
  5  6  2  0
  6  7  1  0
  7  8  2  0
  8  9  1  0
  9 10  1  0
 10 11  1  0
 11 12  2  0
 11 13  1  0
 13 14  2  3
 14 15  1  0
 15 16  1  0
 16 17  2  0
 17 18  1  0
 18 19  2  0
 19 20  1  0
 20 21  2  0
 21 22  1  0
 22 23  2  3
 23 24  1  0
 13 25  1  0
 25 26  2  0
 26 27  1  0
 27 28  1  0
 27 29  2  0
 29 30  1  0
 30 31  2  0
  8 32  1  0
 32 33  2  0
 33  5  1  0
 31 10  1  0
 22 14  1  0
 31 25  1  0
 21 16  1  0
M  END
>  <molecule_chembl_id>  (785) 
CHEMBL4743446

>  <canonical_smiles>  (785) 
O=C(NO)c1ccc(CN2C(=O)C(=C3Nc4ccccc4C3=NO)c3cc(F)ccc32)cc1

>  <pchembl_value_mean>  (785) 
6.71

>  <document_chembl_id>  (785) 
CHEMBL4699494

$$$$

     RDKit          2D

 40 43  0  0  0  0  0  0  0  0999 V2000
  -12.5798  -18.7118    0.0000 C   0  0  0  0  0  0  0  0  0  0  0  0
  -12.2680  -17.2445    0.0000 C   0  0  0  0  0  0  0  0  0  0  0  0
  -10.8414  -16.7810    0.0000 C   0  0  0  0  0  0  0  0  0  0  0  0
  -10.5295  -15.3138    0.0000 C   0  0  0  0  0  0  0  0  0  0  0  0
   -9.1029  -14.8503    0.0000 N   0  0  0  0  0  0  0  0  0  0  0  0
   -8.7911  -13.3831    0.0000 N   0  0  0  0  0  0  0  0  0  0  0  0
   -7.3645  -12.9195    0.0000 C   0  0  0  0  0  0  0  0  0  0  0  0
   -6.2498  -13.9232    0.0000 O   0  0  0  0  0  0  0  0  0  0  0  0
   -7.0526  -11.4523    0.0000 C   0  0  0  0  0  0  0  0  0  0  0  0
   -8.1673  -10.4486    0.0000 C   0  0  0  0  0  0  0  0  0  0  0  0
   -7.8555   -8.9814    0.0000 C   0  0  0  0  0  0  0  0  0  0  0  0
   -6.4289   -8.5179    0.0000 C   0  0  0  0  0  0  0  0  0  0  0  0
   -6.1170   -7.0506    0.0000 C   0  0  0  0  0  0  0  0  0  0  0  0
   -4.6904   -6.5871    0.0000 N   0  0  0  0  0  0  0  0  0  0  0  0
   -4.3786   -5.1199    0.0000 C   0  0  0  0  0  0  0  0  0  0  0  0
   -5.4933   -4.1162    0.0000 O   0  0  0  0  0  0  0  0  0  0  0  0
   -2.9520   -4.6564    0.0000 C   0  0  0  0  0  0  0  0  0  0  0  0
   -2.6401   -3.1891    0.0000 C   0  0  0  0  0  0  0  0  0  0  0  0
   -1.2135   -2.7256    0.0000 C   0  0  0  0  0  0  0  0  0  0  0  0
   -0.0000   -3.6073    0.0000 C   0  0  0  0  0  0  0  0  0  0  0  0
    1.2135   -2.7256    0.0000 N   0  0  0  0  0  0  0  0  0  0  0  0
    0.7500   -1.2990    0.0000 C   0  0  0  0  0  0  0  0  0  0  0  0
    1.5000    0.0000    0.0000 C   0  0  0  0  0  0  0  0  0  0  0  0
    0.7500    1.2990    0.0000 C   0  0  0  0  0  0  0  0  0  0  0  0
   -0.7500    1.2990    0.0000 C   0  0  0  0  0  0  0  0  0  0  0  0
   -1.5000    0.0000    0.0000 C   0  0  0  0  0  0  0  0  0  0  0  0
   -0.7500   -1.2990    0.0000 C   0  0  0  0  0  0  0  0  0  0  0  0
   -1.8373   -5.6601    0.0000 N   0  0  0  0  0  0  0  0  0  0  0  0
   -2.1491   -7.1273    0.0000 C   0  0  0  0  0  0  0  0  0  0  0  0
   -3.5757   -7.5908    0.0000 O   0  0  0  0  0  0  0  0  0  0  0  0
   -1.0344   -8.1310    0.0000 C   0  0  0  0  0  0  0  0  0  0  0  0
   -1.3463   -9.5982    0.0000 C   0  0  0  0  0  0  0  0  0  0  0  0
   -0.2316  -10.6019    0.0000 C   0  0  0  0  0  0  0  0  0  0  0  0
    1.1950  -10.1384    0.0000 C   0  0  0  0  0  0  0  0  0  0  0  0
    2.3097  -11.1421    0.0000 O   0  0  0  0  0  0  0  0  0  0  0  0
    1.9979  -12.6093    0.0000 C   0  0  0  0  0  0  0  0  0  0  0  0
    1.5069   -8.6712    0.0000 C   0  0  0  0  0  0  0  0  0  0  0  0
    0.3922   -7.6675    0.0000 C   0  0  0  0  0  0  0  0  0  0  0  0
   -5.3142   -9.5216    0.0000 C   0  0  0  0  0  0  0  0  0  0  0  0
   -5.6260  -10.9888    0.0000 C   0  0  0  0  0  0  0  0  0  0  0  0
  1  2  1  0
  2  3  1  0
  3  4  1  0
  4  5  1  0
  5  6  1  0
  6  7  1  0
  7  8  2  0
  7  9  1  0
  9 10  2  0
 10 11  1  0
 11 12  2  0
 12 13  1  0
 13 14  1  0
 14 15  1  0
 15 16  2  0
 15 17  1  0
 17 18  1  0
 18 19  1  0
 19 20  2  0
 20 21  1  0
 21 22  1  0
 22 23  2  0
 23 24  1  0
 24 25  2  0
 25 26  1  0
 26 27  2  0
 17 28  1  0
 28 29  1  0
 29 30  2  0
 29 31  1  0
 31 32  2  0
 32 33  1  0
 33 34  2  0
 34 35  1  0
 35 36  1  0
 34 37  1  0
 37 38  2  0
 12 39  1  0
 39 40  2  0
 40  9  1  0
 27 19  1  0
 38 31  1  0
 27 22  1  0
M  END
>  <molecule_chembl_id>  (786) 
CHEMBL4066668

>  <canonical_smiles>  (786) 
CCCCNNC(=O)c1ccc(CNC(=O)C(Cc2c[nH]c3ccccc23)NC(=O)c2ccc(OC)cc2)cc1

>  <pchembl_value_mean>  (786) 
6.71

>  <document_chembl_id>  (786) 
CHEMBL4020839

$$$$

     RDKit          2D

 31 35  0  0  0  0  0  0  0  0999 V2000
   -0.5773   -6.8783    0.0000 N   0  0  0  0  0  0  0  0  0  0  0  0
    0.8899   -6.5665    0.0000 C   0  0  0  0  0  0  0  0  0  0  0  0
    2.0046   -7.5702    0.0000 S   0  0  0  0  0  0  0  0  0  0  0  0
    3.3037   -6.8202    0.0000 C   0  0  0  0  0  0  0  0  0  0  0  0
    4.6740   -7.4303    0.0000 C   0  0  0  0  0  0  0  0  0  0  0  0
    4.8308   -8.9221    0.0000 C   0  0  0  0  0  0  0  0  0  0  0  0
    6.2011   -9.5322    0.0000 C   0  0  0  0  0  0  0  0  0  0  0  0
    7.4146   -8.6505    0.0000 C   0  0  0  0  0  0  0  0  0  0  0  0
    7.2578   -7.1587    0.0000 C   0  0  0  0  0  0  0  0  0  0  0  0
    5.8875   -6.5486    0.0000 C   0  0  0  0  0  0  0  0  0  0  0  0
    2.9918   -5.3529    0.0000 C   0  0  0  0  0  0  0  0  0  0  0  0
    1.5000   -5.1962    0.0000 C   0  0  0  0  0  0  0  0  0  0  0  0
    0.7500   -3.8971    0.0000 N   0  0  0  0  0  0  0  0  0  0  0  0
    1.5000   -2.5981    0.0000 C   0  0  0  0  0  0  0  0  0  0  0  0
    3.0000   -2.5981    0.0000 O   0  0  0  0  0  0  0  0  0  0  0  0
    0.7500   -1.2990    0.0000 C   0  0  0  0  0  0  0  0  0  0  0  0
    1.5000    0.0000    0.0000 C   0  0  0  0  0  0  0  0  0  0  0  0
    0.7500    1.2990    0.0000 N   0  0  0  0  0  0  0  0  0  0  0  0
   -0.7500    1.2990    0.0000 C   0  0  0  0  0  0  0  0  0  0  0  0
   -1.5000    2.5981    0.0000 C   0  0  0  0  0  0  0  0  0  0  0  0
   -3.0000    2.5981    0.0000 C   0  0  0  0  0  0  0  0  0  0  0  0
   -3.7500    3.8971    0.0000 N   0  0  0  0  0  0  0  0  0  0  0  0
   -3.0000    5.1962    0.0000 C   0  0  0  0  0  0  0  0  0  0  0  0
   -3.7500    6.4952    0.0000 C   0  0  0  0  0  0  0  0  0  0  0  0
   -5.2500    6.4952    0.0000 N   0  0  0  0  0  0  0  0  0  0  0  0
   -6.0000    5.1962    0.0000 C   0  0  0  0  0  0  0  0  0  0  0  0
   -5.2500    3.8971    0.0000 C   0  0  0  0  0  0  0  0  0  0  0  0
   -3.7500    1.2990    0.0000 C   0  0  0  0  0  0  0  0  0  0  0  0
   -3.0000    0.0000    0.0000 C   0  0  0  0  0  0  0  0  0  0  0  0
   -1.5000    0.0000    0.0000 C   0  0  0  0  0  0  0  0  0  0  0  0
   -0.7500   -1.2990    0.0000 C   0  0  0  0  0  0  0  0  0  0  0  0
  1  2  1  0
  2  3  1  0
  3  4  1  0
  4  5  1  0
  5  6  2  0
  6  7  1  0
  7  8  2  0
  8  9  1  0
  9 10  2  0
  4 11  2  0
 11 12  1  0
 12 13  1  0
 13 14  1  0
 14 15  2  0
 14 16  1  0
 16 17  2  0
 17 18  1  0
 18 19  2  0
 19 20  1  0
 20 21  2  0
 21 22  1  0
 22 23  1  0
 23 24  1  0
 24 25  1  0
 25 26  1  0
 26 27  1  0
 21 28  1  0
 28 29  2  0
 29 30  1  0
 30 31  2  0
 12  2  2  0
 31 16  1  0
 10  5  1  0
 30 19  1  0
 27 22  1  0
M  END
>  <molecule_chembl_id>  (787) 
CHEMBL3891531

>  <canonical_smiles>  (787) 
Nc1sc(-c2ccccc2)cc1NC(=O)c1cnc2cc(N3CCNCC3)ccc2c1

>  <pchembl_value_mean>  (787) 
6.71

>  <document_chembl_id>  (787) 
CHEMBL3886267

$$$$

     RDKit          2D

 30 33  0  0  0  0  0  0  0  0999 V2000
    4.5000  -10.3923    0.0000 O   0  0  0  0  0  0  0  0  0  0  0  0
    3.0000  -10.3923    0.0000 C   0  0  0  0  0  0  0  0  0  0  0  0
    2.2500   -9.0933    0.0000 C   0  0  0  0  0  0  0  0  0  0  0  0
    3.0000   -7.7942    0.0000 C   0  0  0  0  0  0  0  0  0  0  0  0
    2.2500   -6.4952    0.0000 C   0  0  0  0  0  0  0  0  0  0  0  0
    0.7500   -6.4952    0.0000 C   0  0  0  0  0  0  0  0  0  0  0  0
   -0.0000   -5.1962    0.0000 C   0  0  0  0  0  0  0  0  0  0  0  0
    0.7500   -3.8971    0.0000 C   0  0  0  0  0  0  0  0  0  0  0  0
    2.2500   -3.8971    0.0000 C   0  0  0  0  0  0  0  0  0  0  0  0
    3.0000   -5.1962    0.0000 C   0  0  0  0  0  0  0  0  0  0  0  0
    3.0000   -2.5981    0.0000 C   0  0  0  0  0  0  0  0  0  0  0  0
    4.5000   -2.5981    0.0000 O   0  0  0  0  0  0  0  0  0  0  0  0
    2.2500   -1.2990    0.0000 C   0  0  0  0  0  0  0  0  0  0  0  0
    0.7500   -1.2990    0.0000 C   0  0  0  0  0  0  0  0  0  0  0  0
    1.5000    0.0000    0.0000 C   0  0  0  0  0  0  0  0  0  0  0  0
    0.7500    1.2990    0.0000 C   0  0  0  0  0  0  0  0  0  0  0  0
   -0.7500    1.2990    0.0000 N   0  0  0  0  0  0  0  0  0  0  0  0
   -1.5000    2.5981    0.0000 C   0  0  0  0  0  0  0  0  0  0  0  0
   -0.7500    3.8971    0.0000 C   0  0  0  0  0  0  0  0  0  0  0  0
   -1.5000    5.1962    0.0000 C   0  0  0  0  0  0  0  0  0  0  0  0
   -0.7500    6.4952    0.0000 C   0  0  0  0  0  0  0  0  0  0  0  0
   -1.5000    7.7942    0.0000 C   0  0  0  0  0  0  0  0  0  0  0  0
   -3.0000    7.7942    0.0000 C   0  0  0  0  0  0  0  0  0  0  0  0
   -3.7500    6.4952    0.0000 C   0  0  0  0  0  0  0  0  0  0  0  0
   -3.0000    5.1962    0.0000 C   0  0  0  0  0  0  0  0  0  0  0  0
   -1.5000    0.0000    0.0000 C   0  0  0  0  0  0  0  0  0  0  0  0
   -0.7500   -1.2990    0.0000 C   0  0  0  0  0  0  0  0  0  0  0  0
   -0.0000   -2.5981    0.0000 O   0  0  0  0  0  0  0  0  0  0  0  0
    2.2500  -11.6913    0.0000 N   0  0  0  0  0  0  0  0  0  0  0  0
    3.0000  -12.9904    0.0000 O   0  0  0  0  0  0  0  0  0  0  0  0
  1  2  2  0
  2  3  1  0
  3  4  2  3
  4  5  1  0
  5  6  2  0
  6  7  1  0
  7  8  2  0
  8  9  1  0
  9 10  2  0
  9 11  1  0
 11 12  2  0
 11 13  1  0
 13 14  1  0
 14 15  1  0
 15 16  1  0
 16 17  1  0
 17 18  1  0
 18 19  1  0
 19 20  1  0
 20 21  2  0
 21 22  1  0
 22 23  2  0
 23 24  1  0
 24 25  2  0
 17 26  1  0
 26 27  1  0
 14 28  1  0
  2 29  1  0
 29 30  1  0
 10  5  1  0
 27 14  1  0
 28  8  1  0
 25 20  1  0
M  END
>  <molecule_chembl_id>  (788) 
CHEMBL2390996

>  <canonical_smiles>  (788) 
O=C(C=Cc1ccc2c(c1)C(=O)CC1(CCN(CCc3ccccc3)CC1)O2)NO

>  <pchembl_value_mean>  (788) 
6.71

>  <document_chembl_id>  (788) 
CHEMBL2390828

$$$$

     RDKit          2D

 25 26  0  0  0  0  0  0  0  0999 V2000
    3.7500   -1.2990    0.0000 C   0  0  0  0  0  0  0  0  0  0  0  0
    3.0000    0.0000    0.0000 N   0  0  0  0  0  0  0  0  0  0  0  0
    1.5000    0.0000    0.0000 C   0  0  0  0  0  0  0  0  0  0  0  0
    0.7500   -1.2990    0.0000 N   0  0  0  0  0  0  0  0  0  0  0  0
   -0.7500   -1.2990    0.0000 C   0  0  0  0  0  0  0  0  0  0  0  0
   -1.5000   -2.5981    0.0000 N   0  0  0  0  0  0  0  0  0  0  0  0
   -3.0000   -2.5981    0.0000 C   0  0  0  0  0  0  0  0  0  0  0  0
   -3.8817   -3.8116    0.0000 C   0  0  0  0  0  0  0  0  0  0  0  0
   -5.3083   -3.3481    0.0000 N   0  0  0  0  0  0  0  0  0  0  0  0
   -5.3083   -1.8481    0.0000 N   0  0  0  0  0  0  0  0  0  0  0  0
   -6.5218   -0.9664    0.0000 C   0  0  0  0  0  0  0  0  0  0  0  0
   -6.3650    0.5254    0.0000 C   0  0  0  0  0  0  0  0  0  0  0  0
   -7.5785    1.4071    0.0000 C   0  0  0  0  0  0  0  0  0  0  0  0
   -7.4217    2.8988    0.0000 C   0  0  0  0  0  0  0  0  0  0  0  0
   -8.6353    3.7805    0.0000 C   0  0  0  0  0  0  0  0  0  0  0  0
   -8.4785    5.2723    0.0000 C   0  0  0  0  0  0  0  0  0  0  0  0
   -9.6920    6.1540    0.0000 C   0  0  0  0  0  0  0  0  0  0  0  0
  -11.0623    5.5439    0.0000 O   0  0  0  0  0  0  0  0  0  0  0  0
   -9.5352    7.6458    0.0000 N   0  0  0  0  0  0  0  0  0  0  0  0
  -10.7487    8.5274    0.0000 O   0  0  0  0  0  0  0  0  0  0  0  0
   -3.8817   -1.3846    0.0000 C   0  0  0  0  0  0  0  0  0  0  0  0
   -1.5000    0.0000    0.0000 N   0  0  0  0  0  0  0  0  0  0  0  0
   -0.7500    1.2990    0.0000 C   0  0  0  0  0  0  0  0  0  0  0  0
    0.7500    1.2990    0.0000 C   0  0  0  0  0  0  0  0  0  0  0  0
    1.5000    2.5981    0.0000 Cl  0  0  0  0  0  0  0  0  0  0  0  0
  1  2  1  0
  2  3  1  0
  3  4  2  0
  4  5  1  0
  5  6  1  0
  6  7  1  0
  7  8  1  0
  8  9  2  0
  9 10  1  0
 10 11  1  0
 11 12  1  0
 12 13  1  0
 13 14  1  0
 14 15  1  0
 15 16  1  0
 16 17  1  0
 17 18  2  0
 17 19  1  0
 19 20  1  0
 10 21  1  0
  5 22  2  0
 22 23  1  0
 23 24  2  0
 24 25  1  0
 24  3  1  0
 21  7  2  0
M  END
>  <molecule_chembl_id>  (789) 
CHEMBL4451298

>  <canonical_smiles>  (789) 
CNc1nc(Nc2cnn(CCCCCCC(=O)NO)c2)ncc1Cl

>  <pchembl_value_mean>  (789) 
6.72

>  <document_chembl_id>  (789) 
CHEMBL4346670

$$$$

     RDKit          2D

 38 40  0  0  0  0  0  0  0  0999 V2000
  -15.1211  -18.1716    0.0000 C   0  0  0  0  0  0  0  0  0  0  0  0
  -14.8093  -16.7044    0.0000 C   0  0  0  0  0  0  0  0  0  0  0  0
  -13.3827  -16.2409    0.0000 C   0  0  0  0  0  0  0  0  0  0  0  0
  -13.0708  -14.7736    0.0000 N   0  0  0  0  0  0  0  0  0  0  0  0
  -11.6442  -14.3101    0.0000 N   0  0  0  0  0  0  0  0  0  0  0  0
  -11.3324  -12.8429    0.0000 C   0  0  0  0  0  0  0  0  0  0  0  0
  -12.4471  -11.8392    0.0000 O   0  0  0  0  0  0  0  0  0  0  0  0
   -9.9058  -12.3794    0.0000 C   0  0  0  0  0  0  0  0  0  0  0  0
   -9.5939  -10.9121    0.0000 C   0  0  0  0  0  0  0  0  0  0  0  0
   -8.1673  -10.4486    0.0000 C   0  0  0  0  0  0  0  0  0  0  0  0
   -7.8555   -8.9814    0.0000 C   0  0  0  0  0  0  0  0  0  0  0  0
   -6.4289   -8.5179    0.0000 C   0  0  0  0  0  0  0  0  0  0  0  0
   -6.1170   -7.0506    0.0000 C   0  0  0  0  0  0  0  0  0  0  0  0
   -4.6904   -6.5871    0.0000 N   0  0  0  0  0  0  0  0  0  0  0  0
   -4.3786   -5.1199    0.0000 C   0  0  0  0  0  0  0  0  0  0  0  0
   -5.4933   -4.1162    0.0000 O   0  0  0  0  0  0  0  0  0  0  0  0
   -2.9520   -4.6564    0.0000 C   0  0  0  0  0  0  0  0  0  0  0  0
   -2.6401   -3.1891    0.0000 C   0  0  0  0  0  0  0  0  0  0  0  0
   -1.2135   -2.7256    0.0000 C   0  0  0  0  0  0  0  0  0  0  0  0
   -0.0000   -3.6073    0.0000 C   0  0  0  0  0  0  0  0  0  0  0  0
    1.2135   -2.7256    0.0000 N   0  0  0  0  0  0  0  0  0  0  0  0
    0.7500   -1.2990    0.0000 C   0  0  0  0  0  0  0  0  0  0  0  0
    1.5000    0.0000    0.0000 C   0  0  0  0  0  0  0  0  0  0  0  0
    0.7500    1.2990    0.0000 C   0  0  0  0  0  0  0  0  0  0  0  0
   -0.7500    1.2990    0.0000 C   0  0  0  0  0  0  0  0  0  0  0  0
   -1.5000    0.0000    0.0000 C   0  0  0  0  0  0  0  0  0  0  0  0
   -0.7500   -1.2990    0.0000 C   0  0  0  0  0  0  0  0  0  0  0  0
   -1.8373   -5.6601    0.0000 N   0  0  0  0  0  0  0  0  0  0  0  0
   -2.1491   -7.1273    0.0000 C   0  0  0  0  0  0  0  0  0  0  0  0
   -3.5757   -7.5908    0.0000 O   0  0  0  0  0  0  0  0  0  0  0  0
   -1.0344   -8.1310    0.0000 C   0  0  0  0  0  0  0  0  0  0  0  0
   -1.3463   -9.5982    0.0000 C   0  0  0  0  0  0  0  0  0  0  0  0
   -0.2316  -10.6019    0.0000 C   0  0  0  0  0  0  0  0  0  0  0  0
    1.1950  -10.1384    0.0000 C   0  0  0  0  0  0  0  0  0  0  0  0
    2.3097  -11.1421    0.0000 O   0  0  0  0  0  0  0  0  0  0  0  0
    1.9979  -12.6093    0.0000 C   0  0  0  0  0  0  0  0  0  0  0  0
    1.5069   -8.6712    0.0000 C   0  0  0  0  0  0  0  0  0  0  0  0
    0.3922   -7.6675    0.0000 C   0  0  0  0  0  0  0  0  0  0  0  0
  1  2  1  0
  2  3  1  0
  3  4  1  0
  4  5  1  0
  5  6  1  0
  6  7  2  0
  6  8  1  0
  8  9  1  0
  9 10  1  0
 10 11  1  0
 11 12  1  0
 12 13  1  0
 13 14  1  0
 14 15  1  0
 15 16  2  0
 15 17  1  0
 17 18  1  0
 18 19  1  0
 19 20  2  0
 20 21  1  0
 21 22  1  0
 22 23  2  0
 23 24  1  0
 24 25  2  0
 25 26  1  0
 26 27  2  0
 17 28  1  0
 28 29  1  0
 29 30  2  0
 29 31  1  0
 31 32  2  0
 32 33  1  0
 33 34  2  0
 34 35  1  0
 35 36  1  0
 34 37  1  0
 37 38  2  0
 27 19  1  0
 38 31  1  0
 27 22  1  0
M  END
>  <molecule_chembl_id>  (790) 
CHEMBL4097567

>  <canonical_smiles>  (790) 
CCCNNC(=O)CCCCCCNC(=O)C(Cc1c[nH]c2ccccc12)NC(=O)c1ccc(OC)cc1

>  <pchembl_value_mean>  (790) 
6.72

>  <document_chembl_id>  (790) 
CHEMBL4020839

$$$$

     RDKit          2D

 29 32  0  0  0  0  0  0  0  0999 V2000
    4.5000  -10.3923    0.0000 O   0  0  0  0  0  0  0  0  0  0  0  0
    3.0000  -10.3923    0.0000 C   0  0  0  0  0  0  0  0  0  0  0  0
    2.2500   -9.0933    0.0000 C   0  0  0  0  0  0  0  0  0  0  0  0
    3.0000   -7.7942    0.0000 C   0  0  0  0  0  0  0  0  0  0  0  0
    2.2500   -6.4952    0.0000 C   0  0  0  0  0  0  0  0  0  0  0  0
    0.7500   -6.4952    0.0000 C   0  0  0  0  0  0  0  0  0  0  0  0
   -0.0000   -5.1962    0.0000 C   0  0  0  0  0  0  0  0  0  0  0  0
    0.7500   -3.8971    0.0000 C   0  0  0  0  0  0  0  0  0  0  0  0
    2.2500   -3.8971    0.0000 C   0  0  0  0  0  0  0  0  0  0  0  0
    3.0000   -5.1962    0.0000 C   0  0  0  0  0  0  0  0  0  0  0  0
    3.0000   -2.5981    0.0000 C   0  0  0  0  0  0  0  0  0  0  0  0
    4.5000   -2.5981    0.0000 O   0  0  0  0  0  0  0  0  0  0  0  0
    2.2500   -1.2990    0.0000 N   0  0  0  0  0  0  0  0  0  0  0  0
    0.7500   -1.2990    0.0000 C   0  0  0  0  0  0  0  0  0  0  0  0
    1.5000    0.0000    0.0000 C   0  0  0  0  0  0  0  0  0  0  0  0
    0.7500    1.2990    0.0000 C   0  0  0  0  0  0  0  0  0  0  0  0
   -0.7500    1.2990    0.0000 N   0  0  0  0  0  0  0  0  0  0  0  0
   -1.5000    2.5981    0.0000 C   0  0  0  0  0  0  0  0  0  0  0  0
   -0.7500    3.8971    0.0000 C   0  0  0  0  0  0  0  0  0  0  0  0
    0.7500    3.8971    0.0000 C   0  0  0  0  0  0  0  0  0  0  0  0
    1.5000    5.1962    0.0000 C   0  0  0  0  0  0  0  0  0  0  0  0
    0.7500    6.4952    0.0000 C   0  0  0  0  0  0  0  0  0  0  0  0
   -0.7500    6.4952    0.0000 C   0  0  0  0  0  0  0  0  0  0  0  0
   -1.5000    5.1962    0.0000 C   0  0  0  0  0  0  0  0  0  0  0  0
   -1.5000    0.0000    0.0000 C   0  0  0  0  0  0  0  0  0  0  0  0
   -0.7500   -1.2990    0.0000 C   0  0  0  0  0  0  0  0  0  0  0  0
   -0.0000   -2.5981    0.0000 O   0  0  0  0  0  0  0  0  0  0  0  0
    2.2500  -11.6913    0.0000 N   0  0  0  0  0  0  0  0  0  0  0  0
    3.0000  -12.9904    0.0000 O   0  0  0  0  0  0  0  0  0  0  0  0
  1  2  2  0
  2  3  1  0
  3  4  2  3
  4  5  1  0
  5  6  2  0
  6  7  1  0
  7  8  2  0
  8  9  1  0
  9 10  2  0
  9 11  1  0
 11 12  2  0
 11 13  1  0
 13 14  1  0
 14 15  1  0
 15 16  1  0
 16 17  1  0
 17 18  1  0
 18 19  1  0
 19 20  2  0
 20 21  1  0
 21 22  2  0
 22 23  1  0
 23 24  2  0
 17 25  1  0
 25 26  1  0
 14 27  1  0
  2 28  1  0
 28 29  1  0
 10  5  1  0
 26 14  1  0
 27  8  1  0
 24 19  1  0
M  END
>  <molecule_chembl_id>  (791) 
CHEMBL2390999

>  <canonical_smiles>  (791) 
O=C(C=Cc1ccc2c(c1)C(=O)NC1(CCN(Cc3ccccc3)CC1)O2)NO

>  <pchembl_value_mean>  (791) 
6.72

>  <document_chembl_id>  (791) 
CHEMBL2390828

$$$$

     RDKit          2D

 27 29  0  0  0  0  0  0  0  0999 V2000
    6.0000    0.0000    0.0000 O   0  0  0  0  0  0  0  0  0  0  0  0
    5.2500   -1.2990    0.0000 C   0  0  0  0  0  0  0  0  0  0  0  0
    3.7500   -1.2990    0.0000 C   0  0  0  0  0  0  0  0  0  0  0  0
    3.0000    0.0000    0.0000 C   0  0  0  0  0  0  0  0  0  0  0  0
    1.5000    0.0000    0.0000 C   0  0  0  0  0  0  0  0  0  0  0  0
    0.7500   -1.2990    0.0000 C   0  0  0  0  0  0  0  0  0  0  0  0
   -0.7500   -1.2990    0.0000 C   0  0  0  0  0  0  0  0  0  0  0  0
   -1.5000    0.0000    0.0000 C   0  0  0  0  0  0  0  0  0  0  0  0
   -0.7500    1.2990    0.0000 C   0  0  0  0  0  0  0  0  0  0  0  0
   -1.7537    2.4138    0.0000 C   0  0  0  0  0  0  0  0  0  0  0  0
   -3.1240    1.8037    0.0000 C   0  0  0  0  0  0  0  0  0  0  0  0
   -2.9672    0.3119    0.0000 N   0  0  0  0  0  0  0  0  0  0  0  0
   -4.0819   -0.6918    0.0000 S   0  0  0  0  0  0  0  0  0  0  0  0
   -3.0782   -1.8065    0.0000 O   0  0  0  0  0  0  0  0  0  0  0  0
   -5.0856    0.4229    0.0000 O   0  0  0  0  0  0  0  0  0  0  0  0
   -5.1967   -1.6955    0.0000 C   0  0  0  0  0  0  0  0  0  0  0  0
   -6.6232   -1.2320    0.0000 C   0  0  0  0  0  0  0  0  0  0  0  0
   -7.7380   -2.2357    0.0000 C   0  0  0  0  0  0  0  0  0  0  0  0
   -7.4261   -3.7029    0.0000 C   0  0  0  0  0  0  0  0  0  0  0  0
   -8.5408   -4.7066    0.0000 N   0  0  0  0  0  4  0  0  0  0  0  0
   -8.2289   -6.1738    0.0000 O   0  0  0  0  0  0  0  0  0  0  0  0
   -9.9674   -4.2431    0.0000 O   0  0  0  0  0  1  0  0  0  0  0  0
   -5.9995   -4.1664    0.0000 C   0  0  0  0  0  0  0  0  0  0  0  0
   -4.8848   -3.1627    0.0000 C   0  0  0  0  0  0  0  0  0  0  0  0
    0.7500    1.2990    0.0000 C   0  0  0  0  0  0  0  0  0  0  0  0
    6.0000   -2.5981    0.0000 N   0  0  0  0  0  0  0  0  0  0  0  0
    7.5000   -2.5981    0.0000 O   0  0  0  0  0  0  0  0  0  0  0  0
  1  2  2  0
  2  3  1  0
  3  4  2  3
  4  5  1  0
  5  6  2  0
  6  7  1  0
  7  8  2  0
  8  9  1  0
  9 10  1  0
 10 11  2  0
 11 12  1  0
 12 13  1  0
 13 14  2  0
 13 15  2  0
 13 16  1  0
 16 17  2  0
 17 18  1  0
 18 19  2  0
 19 20  1  0
 20 21  2  0
 20 22  1  0
 19 23  1  0
 23 24  2  0
  9 25  2  0
  2 26  1  0
 26 27  1  0
 25  5  1  0
 12  8  1  0
 24 16  1  0
M  CHG  2  20   1  22  -1
M  END
>  <molecule_chembl_id>  (792) 
CHEMBL2048752

>  <canonical_smiles>  (792) 
O=C(C=Cc1ccc2c(ccn2S(=O)(=O)c2ccc([N+](=O)[O-])cc2)c1)NO

>  <pchembl_value_mean>  (792) 
6.72

>  <document_chembl_id>  (792) 
CHEMBL2046324

$$$$

     RDKit          2D

 42 46  0  0  0  0  0  0  0  0999 V2000
    1.9979  -12.6093    0.0000 C   0  0  0  0  0  0  0  0  0  0  0  0
    2.3097  -11.1421    0.0000 O   0  0  0  0  0  0  0  0  0  0  0  0
    1.1950  -10.1384    0.0000 C   0  0  0  0  0  0  0  0  0  0  0  0
   -0.2316  -10.6019    0.0000 C   0  0  0  0  0  0  0  0  0  0  0  0
   -1.3463   -9.5982    0.0000 C   0  0  0  0  0  0  0  0  0  0  0  0
   -1.0344   -8.1310    0.0000 C   0  0  0  0  0  0  0  0  0  0  0  0
   -2.1491   -7.1273    0.0000 C   0  0  0  0  0  0  0  0  0  0  0  0
   -3.5757   -7.5908    0.0000 O   0  0  0  0  0  0  0  0  0  0  0  0
   -1.8373   -5.6601    0.0000 N   0  0  0  0  0  0  0  0  0  0  0  0
   -2.9520   -4.6564    0.0000 C   0  0  0  0  0  0  0  0  0  0  0  0
   -2.6401   -3.1891    0.0000 C   0  0  0  0  0  0  0  0  0  0  0  0
   -1.2135   -2.7256    0.0000 C   0  0  0  0  0  0  0  0  0  0  0  0
   -0.0000   -3.6073    0.0000 C   0  0  0  0  0  0  0  0  0  0  0  0
    1.2135   -2.7256    0.0000 N   0  0  0  0  0  0  0  0  0  0  0  0
    0.7500   -1.2990    0.0000 C   0  0  0  0  0  0  0  0  0  0  0  0
    1.5000    0.0000    0.0000 C   0  0  0  0  0  0  0  0  0  0  0  0
    0.7500    1.2990    0.0000 C   0  0  0  0  0  0  0  0  0  0  0  0
   -0.7500    1.2990    0.0000 C   0  0  0  0  0  0  0  0  0  0  0  0
   -1.5000    0.0000    0.0000 C   0  0  0  0  0  0  0  0  0  0  0  0
   -0.7500   -1.2990    0.0000 C   0  0  0  0  0  0  0  0  0  0  0  0
   -4.3786   -5.1199    0.0000 C   0  0  0  0  0  0  0  0  0  0  0  0
   -5.4933   -4.1162    0.0000 O   0  0  0  0  0  0  0  0  0  0  0  0
   -4.6904   -6.5871    0.0000 N   0  0  0  0  0  0  0  0  0  0  0  0
   -6.1170   -7.0506    0.0000 C   0  0  0  0  0  0  0  0  0  0  0  0
   -6.4289   -8.5179    0.0000 C   0  0  0  0  0  0  0  0  0  0  0  0
   -7.8555   -8.9814    0.0000 C   0  0  0  0  0  0  0  0  0  0  0  0
   -8.1673  -10.4486    0.0000 C   0  0  0  0  0  0  0  0  0  0  0  0
   -7.0526  -11.4523    0.0000 C   0  0  0  0  0  0  0  0  0  0  0  0
   -7.3645  -12.9195    0.0000 C   0  0  0  0  0  0  0  0  0  0  0  0
   -6.2498  -13.9232    0.0000 O   0  0  0  0  0  0  0  0  0  0  0  0
   -8.7911  -13.3831    0.0000 N   0  0  0  0  0  0  0  0  0  0  0  0
   -9.1029  -14.8503    0.0000 C   0  0  0  0  0  0  0  0  0  0  0  0
  -10.5295  -15.3138    0.0000 C   0  0  0  0  0  0  0  0  0  0  0  0
  -10.8414  -16.7810    0.0000 C   0  0  0  0  0  0  0  0  0  0  0  0
   -9.7267  -17.7847    0.0000 C   0  0  0  0  0  0  0  0  0  0  0  0
   -8.3001  -17.3212    0.0000 C   0  0  0  0  0  0  0  0  0  0  0  0
   -7.9882  -15.8540    0.0000 C   0  0  0  0  0  0  0  0  0  0  0  0
   -6.5616  -15.3904    0.0000 N   0  0  0  0  0  0  0  0  0  0  0  0
   -5.6260  -10.9888    0.0000 C   0  0  0  0  0  0  0  0  0  0  0  0
   -5.3142   -9.5216    0.0000 C   0  0  0  0  0  0  0  0  0  0  0  0
    0.3922   -7.6675    0.0000 C   0  0  0  0  0  0  0  0  0  0  0  0
    1.5069   -8.6712    0.0000 C   0  0  0  0  0  0  0  0  0  0  0  0
  1  2  1  0
  2  3  1  0
  3  4  2  0
  4  5  1  0
  5  6  2  0
  6  7  1  0
  7  8  2  0
  7  9  1  0
  9 10  1  0
 10 11  1  0
 11 12  1  0
 12 13  2  0
 13 14  1  0
 14 15  1  0
 15 16  2  0
 16 17  1  0
 17 18  2  0
 18 19  1  0
 19 20  2  0
 10 21  1  0
 21 22  2  0
 21 23  1  0
 23 24  1  0
 24 25  1  0
 25 26  2  0
 26 27  1  0
 27 28  2  0
 28 29  1  0
 29 30  2  0
 29 31  1  0
 31 32  1  0
 32 33  2  0
 33 34  1  0
 34 35  2  0
 35 36  1  0
 36 37  2  0
 37 38  1  0
 28 39  1  0
 39 40  2  0
  6 41  1  0
 41 42  2  0
 42  3  1  0
 20 12  1  0
 40 25  1  0
 20 15  1  0
 37 32  1  0
M  END
>  <molecule_chembl_id>  (793) 
CHEMBL4085511

>  <canonical_smiles>  (793) 
COc1ccc(C(=O)NC(Cc2c[nH]c3ccccc23)C(=O)NCc2ccc(C(=O)Nc3ccccc3N)cc2)cc1

>  <pchembl_value_mean>  (793) 
6.725

>  <document_chembl_id>  (793) 
CHEMBL4020724

$$$$

     RDKit          2D

 23 25  0  0  0  0  0  0  0  0999 V2000
    3.7500    1.2990    0.0000 O   0  0  0  0  0  0  0  0  0  0  0  0
    3.0000    0.0000    0.0000 C   0  0  0  0  0  0  0  0  0  0  0  0
    3.7500   -1.2990    0.0000 N   0  0  0  0  0  0  0  0  0  0  0  0
    5.2500   -1.2990    0.0000 O   0  0  0  0  0  0  0  0  0  0  0  0
    1.5000    0.0000    0.0000 C   0  0  0  0  0  0  0  0  0  0  0  0
    0.7500   -1.2990    0.0000 C   0  0  0  0  0  0  0  0  0  0  0  0
   -0.7500   -1.2990    0.0000 N   0  0  0  0  0  0  0  0  0  0  0  0
   -1.5000    0.0000    0.0000 C   0  0  0  0  0  0  0  0  0  0  0  0
   -3.0000    0.0000    0.0000 N   0  0  0  0  0  0  0  0  0  0  0  0
   -3.7500    1.2990    0.0000 C   0  0  0  0  0  0  0  0  0  0  0  0
   -3.0000    2.5981    0.0000 C   0  0  0  0  0  0  0  0  0  0  0  0
   -3.7500    3.8971    0.0000 C   0  0  0  0  0  0  0  0  0  0  0  0
   -5.2500    3.8971    0.0000 C   0  0  0  0  0  0  0  0  0  0  0  0
   -6.0000    2.5981    0.0000 C   0  0  0  0  0  0  0  0  0  0  0  0
   -7.5000    2.5981    0.0000 C   0  0  0  0  0  0  0  0  0  0  0  0
   -8.2500    3.8971    0.0000 C   0  0  0  0  0  0  0  0  0  0  0  0
   -9.7500    3.8971    0.0000 C   0  0  0  0  0  0  0  0  0  0  0  0
  -10.5000    2.5981    0.0000 C   0  0  0  0  0  0  0  0  0  0  0  0
   -9.7500    1.2990    0.0000 C   0  0  0  0  0  0  0  0  0  0  0  0
   -8.2500    1.2990    0.0000 C   0  0  0  0  0  0  0  0  0  0  0  0
   -5.2500    1.2990    0.0000 C   0  0  0  0  0  0  0  0  0  0  0  0
   -0.7500    1.2990    0.0000 N   0  0  0  0  0  0  0  0  0  0  0  0
    0.7500    1.2990    0.0000 C   0  0  0  0  0  0  0  0  0  0  0  0
  1  2  2  0
  2  3  1  0
  3  4  1  0
  2  5  1  0
  5  6  2  0
  6  7  1  0
  7  8  2  0
  8  9  1  0
  9 10  1  0
 10 11  2  0
 11 12  1  0
 12 13  2  0
 13 14  1  0
 14 15  1  0
 15 16  2  0
 16 17  1  0
 17 18  2  0
 18 19  1  0
 19 20  2  0
 14 21  2  0
  8 22  1  0
 22 23  2  0
 23  5  1  0
 21 10  1  0
 20 15  1  0
M  END
>  <molecule_chembl_id>  (794) 
CHEMBL3655911

>  <canonical_smiles>  (794) 
O=C(NO)c1cnc(Nc2cccc(-c3ccccc3)c2)nc1

>  <pchembl_value_mean>  (794) 
6.73

>  <document_chembl_id>  (794) 
CHEMBL3639071

$$$$

     RDKit          2D

 27 29  0  0  0  0  0  0  0  0999 V2000
  -12.9904   -9.6073    0.0000 C   0  0  0  0  0  0  0  0  0  0  0  0
  -11.6913  -10.3573    0.0000 C   0  0  0  0  0  0  0  0  0  0  0  0
  -10.3923   -9.6073    0.0000 C   0  0  0  0  0  0  0  0  0  0  0  0
   -9.0933  -10.3573    0.0000 N   0  0  0  0  0  0  0  0  0  0  0  0
   -7.7942   -9.6073    0.0000 N   0  0  0  0  0  0  0  0  0  0  0  0
   -6.4952  -10.3573    0.0000 C   0  0  0  0  0  0  0  0  0  0  0  0
   -6.4952  -11.8573    0.0000 O   0  0  0  0  0  0  0  0  0  0  0  0
   -5.1962   -9.6073    0.0000 C   0  0  0  0  0  0  0  0  0  0  0  0
   -5.1962   -8.1073    0.0000 C   0  0  0  0  0  0  0  0  0  0  0  0
   -3.8971   -7.3573    0.0000 C   0  0  0  0  0  0  0  0  0  0  0  0
   -2.5981   -8.1073    0.0000 C   0  0  0  0  0  0  0  0  0  0  0  0
   -1.2990   -7.3573    0.0000 C   0  0  0  0  0  0  0  0  0  0  0  0
   -1.2990   -5.8573    0.0000 N   0  0  0  0  0  0  0  0  0  0  0  0
   -0.0000   -5.1073    0.0000 C   0  0  0  0  0  0  0  0  0  0  0  0
    1.2990   -5.8573    0.0000 O   0  0  0  0  0  0  0  0  0  0  0  0
   -0.0000   -3.6073    0.0000 C   0  0  0  0  0  0  0  0  0  0  0  0
    1.2135   -2.7256    0.0000 C   0  0  0  0  0  0  0  0  0  0  0  0
    0.7500   -1.2990    0.0000 C   0  0  0  0  0  0  0  0  0  0  0  0
    1.5000    0.0000    0.0000 C   0  0  0  0  0  0  0  0  0  0  0  0
    0.7500    1.2990    0.0000 C   0  0  0  0  0  0  0  0  0  0  0  0
    1.5000    2.5981    0.0000 Br  0  0  0  0  0  0  0  0  0  0  0  0
   -0.7500    1.2990    0.0000 C   0  0  0  0  0  0  0  0  0  0  0  0
   -1.5000    0.0000    0.0000 C   0  0  0  0  0  0  0  0  0  0  0  0
   -0.7500   -1.2990    0.0000 C   0  0  0  0  0  0  0  0  0  0  0  0
   -1.2135   -2.7256    0.0000 N   0  0  0  0  0  0  0  0  0  0  0  0
   -2.5981   -9.6073    0.0000 C   0  0  0  0  0  0  0  0  0  0  0  0
   -3.8971  -10.3573    0.0000 C   0  0  0  0  0  0  0  0  0  0  0  0
  1  2  1  0
  2  3  1  0
  3  4  1  0
  4  5  1  0
  5  6  1  0
  6  7  2  0
  6  8  1  0
  8  9  2  0
  9 10  1  0
 10 11  2  0
 11 12  1  0
 12 13  1  0
 13 14  1  0
 14 15  2  0
 14 16  1  0
 16 17  2  0
 17 18  1  0
 18 19  2  0
 19 20  1  0
 20 21  1  0
 20 22  2  0
 22 23  1  0
 23 24  2  0
 24 25  1  0
 11 26  1  0
 26 27  2  0
 27  8  1  0
 25 16  1  0
 24 18  1  0
M  END
>  <molecule_chembl_id>  (795) 
CHEMBL5076715

>  <canonical_smiles>  (795) 
CCCNNC(=O)c1ccc(CNC(=O)c2cc3cc(Br)ccc3[nH]2)cc1

>  <pchembl_value_mean>  (795) 
6.73

>  <document_chembl_id>  (795) 
CHEMBL5042504

$$$$

     RDKit          2D

 33 37  0  0  0  0  0  0  0  0999 V2000
   -8.5256    0.3621    0.0000 O   0  0  0  0  0  0  0  0  0  0  0  0
   -7.0990    0.8256    0.0000 C   0  0  0  0  0  0  0  0  0  0  0  0
   -6.7871    2.2929    0.0000 N   0  0  0  0  0  0  0  0  0  0  0  0
   -7.9018    3.2966    0.0000 O   0  0  0  0  0  0  0  0  0  0  0  0
   -5.9843   -0.1781    0.0000 C   0  0  0  0  0  0  0  0  0  0  0  0
   -4.5577    0.2855    0.0000 C   0  0  0  0  0  0  0  0  0  0  0  0
   -3.4430   -0.7182    0.0000 C   0  0  0  0  0  0  0  0  0  0  0  0
   -3.7548   -2.1855    0.0000 C   0  0  0  0  0  0  0  0  0  0  0  0
   -2.6401   -3.1891    0.0000 C   0  0  0  0  0  0  0  0  0  0  0  0
   -1.2135   -2.7256    0.0000 N   0  0  0  0  0  0  0  0  0  0  0  0
   -0.0000   -3.6073    0.0000 C   0  0  0  0  0  0  0  0  0  0  0  0
    0.0000   -5.1073    0.0000 O   0  0  0  0  0  0  0  0  0  0  0  0
    1.2135   -2.7256    0.0000 C   0  0  0  0  0  0  0  0  0  0  0  0
    2.6401   -3.1891    0.0000 C   0  0  0  0  0  0  0  0  0  0  0  0
    3.1036   -4.6157    0.0000 N   0  0  0  0  0  0  0  0  0  0  0  0
    4.6036   -4.6157    0.0000 C   0  0  0  0  0  0  0  0  0  0  0  0
    5.6073   -5.7305    0.0000 C   0  0  0  0  0  0  0  0  0  0  0  0
    7.0746   -5.4186    0.0000 C   0  0  0  0  0  0  0  0  0  0  0  0
    7.5381   -3.9920    0.0000 C   0  0  0  0  0  0  0  0  0  0  0  0
    6.5344   -2.8773    0.0000 C   0  0  0  0  0  0  0  0  0  0  0  0
    5.0672   -3.1891    0.0000 C   0  0  0  0  0  0  0  0  0  0  0  0
    3.8536   -2.3075    0.0000 C   0  0  0  0  0  0  0  0  0  0  0  0
    3.8536   -0.8075    0.0000 N   0  0  0  0  0  0  0  0  0  0  0  0
    5.1527   -0.0575    0.0000 O   0  0  0  0  0  0  0  0  0  0  0  0
    0.7500   -1.2990    0.0000 C   0  0  0  0  0  0  0  0  0  0  0  0
    1.5000    0.0000    0.0000 C   0  0  0  0  0  0  0  0  0  0  0  0
    0.7500    1.2990    0.0000 C   0  0  0  0  0  0  0  0  0  0  0  0
    1.5000    2.5981    0.0000 Cl  0  0  0  0  0  0  0  0  0  0  0  0
   -0.7500    1.2990    0.0000 C   0  0  0  0  0  0  0  0  0  0  0  0
   -1.5000    0.0000    0.0000 C   0  0  0  0  0  0  0  0  0  0  0  0
   -0.7500   -1.2990    0.0000 C   0  0  0  0  0  0  0  0  0  0  0  0
   -5.1814   -2.6490    0.0000 C   0  0  0  0  0  0  0  0  0  0  0  0
   -6.2961   -1.6453    0.0000 C   0  0  0  0  0  0  0  0  0  0  0  0
  1  2  2  0
  2  3  1  0
  3  4  1  0
  2  5  1  0
  5  6  2  0
  6  7  1  0
  7  8  2  0
  8  9  1  0
  9 10  1  0
 10 11  1  0
 11 12  2  0
 11 13  1  0
 13 14  2  3
 14 15  1  0
 15 16  1  0
 16 17  2  0
 17 18  1  0
 18 19  2  0
 19 20  1  0
 20 21  2  0
 21 22  1  0
 22 23  2  3
 23 24  1  0
 13 25  1  0
 25 26  2  0
 26 27  1  0
 27 28  1  0
 27 29  2  0
 29 30  1  0
 30 31  2  0
  8 32  1  0
 32 33  2  0
 33  5  1  0
 31 10  1  0
 22 14  1  0
 31 25  1  0
 21 16  1  0
M  END
>  <molecule_chembl_id>  (796) 
CHEMBL4777783

>  <canonical_smiles>  (796) 
O=C(NO)c1ccc(CN2C(=O)C(=C3Nc4ccccc4C3=NO)c3cc(Cl)ccc32)cc1

>  <pchembl_value_mean>  (796) 
6.73

>  <document_chembl_id>  (796) 
CHEMBL4699494

$$$$

     RDKit          2D

 23 25  0  0  0  0  0  0  0  0999 V2000
    3.7500    1.2990    0.0000 O   0  0  0  0  0  0  0  0  0  0  0  0
    3.0000    0.0000    0.0000 C   0  0  0  0  0  0  0  0  0  0  0  0
    3.7500   -1.2990    0.0000 N   0  0  0  0  0  0  0  0  0  0  0  0
    5.2500   -1.2990    0.0000 O   0  0  0  0  0  0  0  0  0  0  0  0
    1.5000    0.0000    0.0000 C   0  0  0  0  0  0  0  0  0  0  0  0
    0.7500   -1.2990    0.0000 C   0  0  0  0  0  0  0  0  0  0  0  0
   -0.7500   -1.2990    0.0000 N   0  0  0  0  0  0  0  0  0  0  0  0
   -1.5000    0.0000    0.0000 C   0  0  0  0  0  0  0  0  0  0  0  0
   -3.0000    0.0000    0.0000 N   0  0  0  0  0  0  0  0  0  0  0  0
   -3.7500    1.2990    0.0000 C   0  0  0  0  0  0  0  0  0  0  0  0
   -3.0000    2.5981    0.0000 C   0  0  0  0  0  0  0  0  0  0  0  0
   -3.7500    3.8971    0.0000 C   0  0  0  0  0  0  0  0  0  0  0  0
   -5.2500    3.8971    0.0000 C   0  0  0  0  0  0  0  0  0  0  0  0
   -6.0000    2.5981    0.0000 C   0  0  0  0  0  0  0  0  0  0  0  0
   -7.5000    2.5981    0.0000 C   0  0  0  0  0  0  0  0  0  0  0  0
   -8.2500    3.8971    0.0000 C   0  0  0  0  0  0  0  0  0  0  0  0
   -9.7500    3.8971    0.0000 C   0  0  0  0  0  0  0  0  0  0  0  0
  -10.5000    2.5981    0.0000 N   0  0  0  0  0  0  0  0  0  0  0  0
   -9.7500    1.2990    0.0000 C   0  0  0  0  0  0  0  0  0  0  0  0
   -8.2500    1.2990    0.0000 C   0  0  0  0  0  0  0  0  0  0  0  0
   -5.2500    1.2990    0.0000 C   0  0  0  0  0  0  0  0  0  0  0  0
   -0.7500    1.2990    0.0000 N   0  0  0  0  0  0  0  0  0  0  0  0
    0.7500    1.2990    0.0000 C   0  0  0  0  0  0  0  0  0  0  0  0
  1  2  2  0
  2  3  1  0
  3  4  1  0
  2  5  1  0
  5  6  2  0
  6  7  1  0
  7  8  2  0
  8  9  1  0
  9 10  1  0
 10 11  2  0
 11 12  1  0
 12 13  2  0
 13 14  1  0
 14 15  1  0
 15 16  2  0
 16 17  1  0
 17 18  2  0
 18 19  1  0
 19 20  2  0
 14 21  2  0
  8 22  1  0
 22 23  2  0
 23  5  1  0
 21 10  1  0
 20 15  1  0
M  END
>  <molecule_chembl_id>  (797) 
CHEMBL3655913

>  <canonical_smiles>  (797) 
O=C(NO)c1cnc(Nc2cccc(-c3ccncc3)c2)nc1

>  <pchembl_value_mean>  (797) 
6.74

>  <document_chembl_id>  (797) 
CHEMBL3639071

$$$$

     RDKit          2D

 39 42  0  0  0  0  0  0  0  0999 V2000
    3.0000    0.0000    0.0000 N   0  0  0  0  0  0  0  0  0  0  0  0
    1.5000    0.0000    0.0000 C   0  0  0  0  0  0  0  0  0  0  0  0
    0.7500   -1.2990    0.0000 C   0  0  0  0  0  0  0  0  0  0  0  0
   -0.7500   -1.2990    0.0000 C   0  0  0  0  0  0  0  0  0  0  0  0
   -1.5000    0.0000    0.0000 C   0  0  0  0  0  0  0  0  0  0  0  0
   -0.7500    1.2990    0.0000 C   0  0  0  0  0  0  0  0  0  0  0  0
    0.7500    1.2990    0.0000 C   0  0  0  0  0  0  0  0  0  0  0  0
    1.5000    2.5981    0.0000 N   0  0  0  0  0  0  0  0  0  0  0  0
    0.7500    3.8971    0.0000 C   0  0  0  0  0  0  0  0  0  0  0  0
   -0.7500    3.8971    0.0000 O   0  0  0  0  0  0  0  0  0  0  0  0
    1.5000    5.1962    0.0000 C   0  0  0  0  0  0  0  0  0  0  0  0
    3.0000    5.1962    0.0000 C   0  0  0  0  0  0  0  0  0  0  0  0
    3.7500    6.4952    0.0000 C   0  0  0  0  0  0  0  0  0  0  0  0
    3.0000    7.7942    0.0000 C   0  0  0  0  0  0  0  0  0  0  0  0
    3.7500    9.0933    0.0000 C   0  0  0  0  0  0  0  0  0  0  0  0
    3.0000   10.3923    0.0000 O   0  0  0  0  0  0  0  0  0  0  0  0
    5.2500    9.0933    0.0000 N   0  0  0  0  0  0  0  0  0  0  0  0
    6.0000   10.3923    0.0000 C   0  0  0  0  0  0  0  0  0  0  0  0
    7.5000   10.3923    0.0000 C   0  0  0  0  0  0  0  0  0  0  0  0
    8.2500   11.6913    0.0000 N   0  0  0  0  0  0  0  0  0  0  0  0
    9.7500   11.6913    0.0000 C   0  0  0  0  0  0  0  0  0  0  0  0
   10.6317   12.9049    0.0000 N   0  0  0  0  0  0  0  0  0  0  0  0
   12.0583   12.4413    0.0000 O   0  0  0  0  0  0  0  0  0  0  0  0
   12.0583   10.9413    0.0000 N   0  0  0  0  0  0  0  0  0  0  0  0
   10.6317   10.4778    0.0000 C   0  0  0  0  0  0  0  0  0  0  0  0
   10.1682    9.0512    0.0000 C   0  0  0  0  0  0  0  0  0  0  0  0
    8.7009    8.7394    0.0000 N   0  0  0  0  0  0  0  0  0  0  0  0
    8.2374    7.3128    0.0000 O   0  0  0  0  0  0  0  0  0  0  0  0
   11.1718    7.9365    0.0000 N   0  0  0  0  0  0  0  0  0  0  0  0
   10.7083    6.5099    0.0000 C   0  0  0  0  0  0  0  0  0  0  0  0
    9.2411    6.1981    0.0000 C   0  0  0  0  0  0  0  0  0  0  0  0
    8.7776    4.7715    0.0000 C   0  0  0  0  0  0  0  0  0  0  0  0
    9.7813    3.6568    0.0000 C   0  0  0  0  0  0  0  0  0  0  0  0
    9.3177    2.2302    0.0000 F   0  0  0  0  0  0  0  0  0  0  0  0
   11.2485    3.9686    0.0000 C   0  0  0  0  0  0  0  0  0  0  0  0
   12.2522    2.8539    0.0000 Br  0  0  0  0  0  0  0  0  0  0  0  0
   11.7120    5.3952    0.0000 C   0  0  0  0  0  0  0  0  0  0  0  0
    1.5000    7.7942    0.0000 C   0  0  0  0  0  0  0  0  0  0  0  0
    0.7500    6.4952    0.0000 C   0  0  0  0  0  0  0  0  0  0  0  0
  1  2  1  0
  2  3  2  0
  3  4  1  0
  4  5  2  0
  5  6  1  0
  6  7  2  0
  7  8  1  0
  8  9  1  0
  9 10  2  0
  9 11  1  0
 11 12  2  0
 12 13  1  0
 13 14  2  0
 14 15  1  0
 15 16  2  0
 15 17  1  0
 17 18  1  0
 18 19  1  0
 19 20  1  0
 20 21  1  0
 21 22  2  0
 22 23  1  0
 23 24  1  0
 24 25  2  0
 25 26  1  0
 26 27  2  3
 27 28  1  0
 26 29  1  0
 29 30  1  0
 30 31  2  0
 31 32  1  0
 32 33  2  0
 33 34  1  0
 33 35  1  0
 35 36  1  0
 35 37  2  0
 14 38  1  0
 38 39  2  0
  7  2  1  0
 39 11  1  0
 25 21  1  0
 37 30  1  0
M  END
>  <molecule_chembl_id>  (798) 
CHEMBL4291940

>  <canonical_smiles>  (798) 
Nc1ccccc1NC(=O)c1ccc(C(=O)NCCNc2nonc2C(=NO)Nc2ccc(F)c(Br)c2)cc1

>  <pchembl_value_mean>  (798) 
6.75

>  <document_chembl_id>  (798) 
CHEMBL4251732

$$$$

     RDKit          2D

 30 31  0  0  0  0  0  0  0  0999 V2000
    3.0000  -15.5885    0.0000 O   0  0  0  0  0  0  0  0  0  0  0  0
    1.5000  -15.5885    0.0000 C   0  0  0  0  0  0  0  0  0  0  0  0
    0.7500  -14.2894    0.0000 C   0  0  0  0  0  0  0  0  0  0  0  0
    1.5000  -12.9904    0.0000 C   0  0  0  0  0  0  0  0  0  0  0  0
    0.7500  -11.6913    0.0000 C   0  0  0  0  0  0  0  0  0  0  0  0
    1.5000  -10.3923    0.0000 C   0  0  0  0  0  0  0  0  0  0  0  0
    0.7500   -9.0933    0.0000 C   0  0  0  0  0  0  0  0  0  0  0  0
    1.5000   -7.7942    0.0000 C   0  0  0  0  0  0  0  0  0  0  0  0
    3.0000   -7.7942    0.0000 N   0  0  0  0  0  0  0  0  0  0  0  0
    3.7500   -9.0933    0.0000 C   0  0  0  0  0  0  0  0  0  0  0  0
    3.0000  -10.3923    0.0000 O   0  0  0  0  0  0  0  0  0  0  0  0
    5.2500   -9.0933    0.0000 C   0  0  0  0  0  0  0  0  0  0  0  0
    6.1317   -7.8797    0.0000 C   0  0  0  0  0  0  0  0  0  0  0  0
    7.5583   -8.3433    0.0000 C   0  0  0  0  0  0  0  0  0  0  0  0
    7.5583   -9.8433    0.0000 C   0  0  0  0  0  0  0  0  0  0  0  0
    8.7718  -10.7249    0.0000 O   0  0  0  0  0  0  0  0  0  0  0  0
    6.1317  -10.3068    0.0000 N   0  0  0  0  0  0  0  0  0  0  0  0
    0.7500   -6.4952    0.0000 C   0  0  0  0  0  0  0  0  0  0  0  0
   -0.7500   -6.4952    0.0000 O   0  0  0  0  0  0  0  0  0  0  0  0
    1.5000   -5.1962    0.0000 N   0  0  0  0  0  0  0  0  0  0  0  0
    0.7500   -3.8971    0.0000 C   0  0  0  0  0  0  0  0  0  0  0  0
    1.5000   -2.5981    0.0000 C   0  0  0  0  0  0  0  0  0  0  0  0
    0.7500   -1.2990    0.0000 C   0  0  0  0  0  0  0  0  0  0  0  0
    1.5000    0.0000    0.0000 C   0  0  0  0  0  0  0  0  0  0  0  0
    0.7500    1.2990    0.0000 C   0  0  0  0  0  0  0  0  0  0  0  0
   -0.7500    1.2990    0.0000 C   0  0  0  0  0  0  0  0  0  0  0  0
   -1.5000    0.0000    0.0000 C   0  0  0  0  0  0  0  0  0  0  0  0
   -0.7500   -1.2990    0.0000 C   0  0  0  0  0  0  0  0  0  0  0  0
    0.7500  -16.8875    0.0000 N   0  0  0  0  0  0  0  0  0  0  0  0
    1.5000  -18.1865    0.0000 O   0  0  0  0  0  0  0  0  0  0  0  0
  1  2  2  0
  2  3  1  0
  3  4  1  0
  4  5  1  0
  5  6  1  0
  6  7  1  0
  7  8  1  0
  8  9  1  0
  9 10  1  0
 10 11  2  0
 10 12  1  0
 12 13  1  0
 13 14  1  0
 14 15  1  0
 15 16  2  0
 15 17  1  0
  8 18  1  0
 18 19  2  0
 18 20  1  0
 20 21  1  0
 21 22  1  0
 22 23  1  0
 23 24  2  0
 24 25  1  0
 25 26  2  0
 26 27  1  0
 27 28  2  0
  2 29  1  0
 29 30  1  0
 17 12  1  0
 28 23  1  0
M  END
>  <molecule_chembl_id>  (799) 
CHEMBL3098688

>  <canonical_smiles>  (799) 
O=C(CCCCCC(NC(=O)C1CCC(=O)N1)C(=O)NCCc1ccccc1)NO

>  <pchembl_value_mean>  (799) 
6.75

>  <document_chembl_id>  (799) 
CHEMBL3098008

$$$$

     RDKit          2D

 28 29  0  0  0  0  0  0  0  0999 V2000
    3.7500   -1.2990    0.0000 N   0  0  0  0  0  0  0  0  0  0  0  0
    3.0000    0.0000    0.0000 C   0  0  0  0  0  0  0  0  0  0  0  0
    1.5000    0.0000    0.0000 C   0  0  0  0  0  0  0  0  0  0  0  0
    0.7500   -1.2990    0.0000 C   0  0  0  0  0  0  0  0  0  0  0  0
   -0.7500   -1.2990    0.0000 C   0  0  0  0  0  0  0  0  0  0  0  0
   -1.5000    0.0000    0.0000 C   0  0  0  0  0  0  0  0  0  0  0  0
   -3.0000    0.0000    0.0000 N   0  0  0  0  0  0  0  0  0  0  0  0
   -3.7500    1.2990    0.0000 C   0  0  0  0  0  0  0  0  0  0  0  0
   -3.0000    2.5981    0.0000 O   0  0  0  0  0  0  0  0  0  0  0  0
   -5.2500    1.2990    0.0000 N   0  0  0  0  0  0  0  0  0  0  0  0
   -6.0000    2.5981    0.0000 C   0  0  0  0  0  0  0  0  0  0  0  0
   -7.5000    2.5981    0.0000 C   0  0  0  0  0  0  0  0  0  0  0  0
   -8.2500    3.8971    0.0000 C   0  0  0  0  0  0  0  0  0  0  0  0
   -9.7500    3.8971    0.0000 C   0  0  0  0  0  0  0  0  0  0  0  0
  -10.5000    5.1962    0.0000 O   0  0  0  0  0  0  0  0  0  0  0  0
   -6.0000    0.0000    0.0000 C   0  0  0  0  0  0  0  0  0  0  0  0
   -7.5000    0.0000    0.0000 C   0  0  0  0  0  0  0  0  0  0  0  0
   -8.2500    1.2990    0.0000 C   0  0  0  0  0  0  0  0  0  0  0  0
   -9.7500    1.2990    0.0000 C   0  0  0  0  0  0  0  0  0  0  0  0
  -10.5000    0.0000    0.0000 C   0  0  0  0  0  0  0  0  0  0  0  0
  -12.0000    0.0000    0.0000 C   0  0  0  0  0  0  0  0  0  0  0  0
  -12.7500   -1.2990    0.0000 O   0  0  0  0  0  0  0  0  0  0  0  0
  -12.7500    1.2990    0.0000 N   0  0  0  0  0  0  0  0  0  0  0  0
  -14.2500    1.2990    0.0000 O   0  0  0  0  0  0  0  0  0  0  0  0
   -9.7500   -1.2990    0.0000 C   0  0  0  0  0  0  0  0  0  0  0  0
   -8.2500   -1.2990    0.0000 C   0  0  0  0  0  0  0  0  0  0  0  0
   -0.7500    1.2990    0.0000 C   0  0  0  0  0  0  0  0  0  0  0  0
    0.7500    1.2990    0.0000 C   0  0  0  0  0  0  0  0  0  0  0  0
  1  2  1  0
  2  3  1  0
  3  4  2  0
  4  5  1  0
  5  6  2  0
  6  7  1  0
  7  8  1  0
  8  9  2  0
  8 10  1  0
 10 11  1  0
 11 12  1  0
 12 13  1  0
 13 14  1  0
 14 15  1  0
 10 16  1  0
 16 17  1  0
 17 18  2  0
 18 19  1  0
 19 20  2  0
 20 21  1  0
 21 22  2  0
 21 23  1  0
 23 24  1  0
 20 25  1  0
 25 26  2  0
  6 27  1  0
 27 28  2  0
 28  3  1  0
 26 17  1  0
M  END
>  <molecule_chembl_id>  (800) 
CHEMBL4777296

>  <canonical_smiles>  (800) 
NCc1ccc(NC(=O)N(CCCCO)Cc2ccc(C(=O)NO)cc2)cc1

>  <pchembl_value_mean>  (800) 
6.75

>  <document_chembl_id>  (800) 
CHEMBL4725372

$$$$

     RDKit          2D

 34 37  0  0  0  0  0  0  0  0999 V2000
   -7.5000   -5.1962    0.0000 O   0  0  0  0  0  0  0  0  0  0  0  0
   -6.0000   -5.1962    0.0000 C   0  0  0  0  0  0  0  0  0  0  0  0
   -5.2500   -6.4952    0.0000 N   0  0  0  0  0  0  0  0  0  0  0  0
   -6.0000   -7.7942    0.0000 O   0  0  0  0  0  0  0  0  0  0  0  0
   -5.2500   -3.8971    0.0000 C   0  0  0  0  0  0  0  0  0  0  0  0
   -3.7500   -3.8971    0.0000 C   0  0  0  0  0  0  0  0  0  0  0  0
   -3.0000   -2.5981    0.0000 N   0  0  0  0  0  0  0  0  0  0  0  0
   -3.7500   -1.2990    0.0000 C   0  0  0  0  0  0  0  0  0  0  0  0
   -3.0000    0.0000    0.0000 N   0  0  0  0  0  0  0  0  0  0  0  0
   -3.7500    1.2990    0.0000 C   0  0  0  0  0  0  0  0  0  0  0  0
   -2.3405    1.8121    0.0000 C   0  0  0  0  0  0  0  0  0  0  0  0
   -1.1914    0.8479    0.0000 C   0  0  0  0  0  0  0  0  0  0  0  0
    0.2181    1.3609    0.0000 C   0  0  0  0  0  0  0  0  0  0  0  0
    0.4786    2.8381    0.0000 C   0  0  0  0  0  0  0  0  0  0  0  0
   -0.6704    3.8023    0.0000 C   0  0  0  0  0  0  0  0  0  0  0  0
   -2.0800    3.2893    0.0000 C   0  0  0  0  0  0  0  0  0  0  0  0
   -4.8991    0.3349    0.0000 C   0  0  0  0  0  0  0  0  0  0  0  0
   -6.3086    0.8479    0.0000 C   0  0  0  0  0  0  0  0  0  0  0  0
   -6.5691    2.3251    0.0000 N   0  0  0  0  0  0  0  0  0  0  0  0
   -7.9786    2.8381    0.0000 C   0  0  0  0  0  0  0  0  0  0  0  0
   -9.1277    1.8739    0.0000 O   0  0  0  0  0  0  0  0  0  0  0  0
   -8.2391    4.3153    0.0000 N   0  0  0  0  0  0  0  0  0  0  0  0
   -9.6486    4.8284    0.0000 C   0  0  0  0  0  0  0  0  0  0  0  0
   -9.9091    6.3056    0.0000 C   0  0  0  0  0  0  0  0  0  0  0  0
  -11.3186    6.8186    0.0000 C   0  0  0  0  0  0  0  0  0  0  0  0
  -12.4677    5.8544    0.0000 C   0  0  0  0  0  0  0  0  0  0  0  0
  -13.8772    6.3675    0.0000 Cl  0  0  0  0  0  0  0  0  0  0  0  0
  -12.2072    4.3772    0.0000 C   0  0  0  0  0  0  0  0  0  0  0  0
  -13.3563    3.4130    0.0000 Cl  0  0  0  0  0  0  0  0  0  0  0  0
  -10.7977    3.8642    0.0000 C   0  0  0  0  0  0  0  0  0  0  0  0
   -5.4200    3.2893    0.0000 C   0  0  0  0  0  0  0  0  0  0  0  0
   -4.0105    2.7762    0.0000 C   0  0  0  0  0  0  0  0  0  0  0  0
   -5.2500   -1.2990    0.0000 N   0  0  0  0  0  0  0  0  0  0  0  0
   -6.0000   -2.5981    0.0000 C   0  0  0  0  0  0  0  0  0  0  0  0
  1  2  2  0
  2  3  1  0
  3  4  1  0
  2  5  1  0
  5  6  2  0
  6  7  1  0
  7  8  2  0
  8  9  1  0
  9 10  1  0
 10 11  1  0
 11 12  2  0
 12 13  1  0
 13 14  2  0
 14 15  1  0
 15 16  2  0
 10 17  1  0
 17 18  1  0
 18 19  1  0
 19 20  1  0
 20 21  2  0
 20 22  1  0
 22 23  1  0
 23 24  2  0
 24 25  1  0
 25 26  2  0
 26 27  1  0
 26 28  1  0
 28 29  1  0
 28 30  2  0
 19 31  1  0
 31 32  1  0
  8 33  1  0
 33 34  2  0
 34  5  1  0
 32 10  1  0
 16 11  1  0
 30 23  1  0
M  END
>  <molecule_chembl_id>  (801) 
CHEMBL3939779

>  <canonical_smiles>  (801) 
O=C(NO)c1cnc(NC2(c3ccccc3)CCN(C(=O)Nc3ccc(Cl)c(Cl)c3)CC2)nc1

>  <pchembl_value_mean>  (801) 
6.75

>  <document_chembl_id>  (801) 
CHEMBL3886590

$$$$

     RDKit          2D

 35 38  0  0  0  0  0  0  0  0999 V2000
   -3.0000   -5.1962    0.0000 C   0  0  0  0  0  0  0  0  0  0  0  0
   -1.5000   -5.1962    0.0000 C   0  0  0  0  0  0  0  0  0  0  0  0
   -0.7500   -3.8971    0.0000 N   0  0  0  0  0  0  0  0  0  0  0  0
    0.7500   -3.8971    0.0000 C   0  0  0  0  0  0  0  0  0  0  0  0
    1.5000   -5.1962    0.0000 S   0  0  0  0  0  0  0  0  0  0  0  0
    0.7500   -6.4952    0.0000 C   0  0  0  0  0  0  0  0  0  0  0  0
    1.5000   -7.7942    0.0000 C   0  0  0  0  0  0  0  0  0  0  0  0
    0.7500   -9.0933    0.0000 C   0  0  0  0  0  0  0  0  0  0  0  0
    1.5000  -10.3923    0.0000 C   0  0  0  0  0  0  0  0  0  0  0  0
    3.0000  -10.3923    0.0000 C   0  0  0  0  0  0  0  0  0  0  0  0
    3.7500  -11.6913    0.0000 C   0  0  0  0  0  0  0  0  0  0  0  0
    3.0000  -12.9904    0.0000 C   0  0  0  0  0  0  0  0  0  0  0  0
    3.7500  -14.2894    0.0000 C   0  0  0  0  0  0  0  0  0  0  0  0
    5.2500  -14.2894    0.0000 O   0  0  0  0  0  0  0  0  0  0  0  0
    3.0000  -15.5885    0.0000 N   0  0  0  0  0  0  0  0  0  0  0  0
    3.7500  -16.8875    0.0000 C   0  0  0  0  0  0  0  0  0  0  0  0
    3.0000  -18.1865    0.0000 C   0  0  0  0  0  0  0  0  0  0  0  0
    3.7500  -19.4856    0.0000 C   0  0  0  0  0  0  0  0  0  0  0  0
    5.2500  -19.4856    0.0000 C   0  0  0  0  0  0  0  0  0  0  0  0
    6.0000  -18.1865    0.0000 C   0  0  0  0  0  0  0  0  0  0  0  0
    5.2500  -16.8875    0.0000 C   0  0  0  0  0  0  0  0  0  0  0  0
    6.0000  -15.5885    0.0000 N   0  0  0  0  0  0  0  0  0  0  0  0
    3.7500   -9.0933    0.0000 C   0  0  0  0  0  0  0  0  0  0  0  0
    3.0000   -7.7942    0.0000 C   0  0  0  0  0  0  0  0  0  0  0  0
    1.5000   -2.5981    0.0000 N   0  0  0  0  0  0  0  0  0  0  0  0
    0.7500   -1.2990    0.0000 C   0  0  0  0  0  0  0  0  0  0  0  0
    1.5000    0.0000    0.0000 C   0  0  0  0  0  0  0  0  0  0  0  0
    0.7500    1.2990    0.0000 C   0  0  0  0  0  0  0  0  0  0  0  0
    1.5000    2.5981    0.0000 O   0  0  0  0  0  0  0  0  0  0  0  0
    3.0000    2.5981    0.0000 C   0  0  0  0  0  0  0  0  0  0  0  0
   -0.7500    1.2990    0.0000 C   0  0  0  0  0  0  0  0  0  0  0  0
   -1.5000    0.0000    0.0000 C   0  0  0  0  0  0  0  0  0  0  0  0
   -0.7500   -1.2990    0.0000 C   0  0  0  0  0  0  0  0  0  0  0  0
   -1.5000   -2.5981    0.0000 C   0  0  0  0  0  0  0  0  0  0  0  0
   -3.0000   -2.5981    0.0000 O   0  0  0  0  0  0  0  0  0  0  0  0
  1  2  1  0
  2  3  1  0
  3  4  1  0
  4  5  1  0
  5  6  1  0
  6  7  1  0
  7  8  2  0
  8  9  1  0
  9 10  2  0
 10 11  1  0
 11 12  2  3
 12 13  1  0
 13 14  2  0
 13 15  1  0
 15 16  1  0
 16 17  2  0
 17 18  1  0
 18 19  2  0
 19 20  1  0
 20 21  2  0
 21 22  1  0
 10 23  1  0
 23 24  2  0
  4 25  2  0
 25 26  1  0
 26 27  2  0
 27 28  1  0
 28 29  1  0
 29 30  1  0
 28 31  2  0
 31 32  1  0
 32 33  2  0
 33 34  1  0
 34 35  2  0
 34  3  1  0
 24  7  1  0
 33 26  1  0
 21 16  1  0
M  END
>  <molecule_chembl_id>  (802) 
CHEMBL4573943

>  <canonical_smiles>  (802) 
CCn1c(SCc2ccc(C=CC(=O)Nc3ccccc3N)cc2)nc2cc(OC)ccc2c1=O

>  <pchembl_value_mean>  (802) 
6.75

>  <document_chembl_id>  (802) 
CHEMBL4393680

$$$$

     RDKit          2D

 36 41  0  0  0  0  0  0  0  0999 V2000
    3.6390   11.1996    0.0000 N   0  0  0  0  0  0  0  0  0  0  0  0
    5.1062   11.5115    0.0000 C   0  0  0  0  0  0  0  0  0  0  0  0
    5.5697   12.9381    0.0000 C   0  0  0  0  0  0  0  0  0  0  0  0
    7.0369   13.2499    0.0000 C   0  0  0  0  0  0  0  0  0  0  0  0
    8.0406   12.1352    0.0000 C   0  0  0  0  0  0  0  0  0  0  0  0
    7.5771   10.7086    0.0000 C   0  0  0  0  0  0  0  0  0  0  0  0
    6.1099   10.3968    0.0000 C   0  0  0  0  0  0  0  0  0  0  0  0
    5.6464    8.9702    0.0000 N   0  0  0  0  0  0  0  0  0  0  0  0
    4.1791    8.6583    0.0000 C   0  0  0  0  0  0  0  0  0  0  0  0
    3.1755    9.7730    0.0000 O   0  0  0  0  0  0  0  0  0  0  0  0
    3.7156    7.2317    0.0000 C   0  0  0  0  0  0  0  0  0  0  0  0
    2.2484    6.9199    0.0000 C   0  0  0  0  0  0  0  0  0  0  0  0
    1.7849    5.4933    0.0000 C   0  0  0  0  0  0  0  0  0  0  0  0
    2.7886    4.3786    0.0000 C   0  0  0  0  0  0  0  0  0  0  0  0
    2.3250    2.9520    0.0000 C   0  0  0  0  0  0  0  0  0  0  0  0
    0.8578    2.6401    0.0000 C   0  0  0  0  0  0  0  0  0  0  0  0
    0.3943    1.2135    0.0000 N   0  0  0  0  0  0  0  0  0  0  0  0
    1.2760    0.0000    0.0000 N   0  0  0  0  0  0  0  0  0  0  0  0
    0.3943   -1.2135    0.0000 C   0  0  0  0  0  0  0  0  0  0  0  0
   -1.0323   -0.7500    0.0000 C   0  0  0  0  0  0  0  0  0  0  0  0
   -1.0323    0.7500    0.0000 C   0  0  0  0  0  0  0  0  0  0  0  0
   -2.3313    1.5000    0.0000 N   0  0  0  0  0  0  0  0  0  0  0  0
   -3.6304    0.7500    0.0000 C   0  0  0  0  0  0  0  0  0  0  0  0
   -4.9294    1.5000    0.0000 N   0  0  0  0  0  0  0  0  0  0  0  0
   -3.6304   -0.7500    0.0000 N   0  0  0  0  0  0  0  0  0  0  0  0
   -4.7451   -1.7537    0.0000 N   0  0  0  0  0  0  0  0  0  0  0  0
   -4.1350   -3.1240    0.0000 C   0  0  0  0  0  0  0  0  0  0  0  0
   -4.8850   -4.4231    0.0000 C   0  0  0  0  0  0  0  0  0  0  0  0
   -4.2749   -5.7934    0.0000 C   0  0  0  0  0  0  0  0  0  0  0  0
   -5.3896   -6.7971    0.0000 C   0  0  0  0  0  0  0  0  0  0  0  0
   -6.6886   -6.0471    0.0000 C   0  0  0  0  0  0  0  0  0  0  0  0
   -6.3768   -4.5798    0.0000 O   0  0  0  0  0  0  0  0  0  0  0  0
   -2.6432   -2.9672    0.0000 N   0  0  0  0  0  0  0  0  0  0  0  0
   -2.3313   -1.5000    0.0000 C   0  0  0  0  0  0  0  0  0  0  0  0
    4.2558    4.6904    0.0000 C   0  0  0  0  0  0  0  0  0  0  0  0
    4.7193    6.1170    0.0000 C   0  0  0  0  0  0  0  0  0  0  0  0
  1  2  1  0
  2  3  2  0
  3  4  1  0
  4  5  2  0
  5  6  1  0
  6  7  2  0
  7  8  1  0
  8  9  1  0
  9 10  2  0
  9 11  1  0
 11 12  2  0
 12 13  1  0
 13 14  2  0
 14 15  1  0
 15 16  1  0
 16 17  1  0
 17 18  1  0
 18 19  2  0
 19 20  1  0
 20 21  2  0
 21 22  1  0
 22 23  2  0
 23 24  1  0
 23 25  1  0
 25 26  1  0
 26 27  2  0
 27 28  1  0
 28 29  2  0
 29 30  1  0
 30 31  2  0
 31 32  1  0
 27 33  1  0
 33 34  2  0
 14 35  1  0
 35 36  2  0
  7  2  1  0
 36 11  1  0
 21 17  1  0
 34 25  1  0
 34 20  1  0
 32 28  1  0
M  END
>  <molecule_chembl_id>  (803) 
CHEMBL5076343

>  <canonical_smiles>  (803) 
Nc1ccccc1NC(=O)c1ccc(CCn2ncc3c2nc(N)n2nc(-c4ccco4)nc32)cc1

>  <pchembl_value_mean>  (803) 
6.75

>  <document_chembl_id>  (803) 
CHEMBL5030563

$$$$

     RDKit          2D

 46 50  0  0  0  0  0  0  0  0999 V2000
   11.6244    5.7659    0.0000 C   0  0  0  0  0  0  0  0  0  0  0  0
   10.2879    6.4469    0.0000 C   0  0  0  0  0  0  0  0  0  0  0  0
   10.2094    7.9449    0.0000 O   0  0  0  0  0  0  0  0  0  0  0  0
    9.0299    5.6300    0.0000 C   0  0  0  0  0  0  0  0  0  0  0  0
    9.1084    4.1320    0.0000 O   0  0  0  0  0  0  0  0  0  0  0  0
    7.6934    6.3110    0.0000 C   0  0  0  0  0  0  0  0  0  0  0  0
    6.4354    5.4940    0.0000 C   0  0  0  0  0  0  0  0  0  0  0  0
    5.0989    6.1750    0.0000 C   0  0  0  0  0  0  0  0  0  0  0  0
    3.8409    5.3580    0.0000 C   0  0  0  0  0  0  0  0  0  0  0  0
    2.5043    6.0390    0.0000 C   0  0  0  0  0  0  0  0  0  0  0  0
    1.2463    5.2220    0.0000 C   0  0  0  0  0  0  0  0  0  0  0  0
    1.7099    3.7955    0.0000 N   0  0  0  0  0  0  0  0  0  0  0  0
    1.3980    2.3282    0.0000 C   0  0  0  0  0  0  0  0  0  0  0  0
    2.7345    1.6473    0.0000 O   0  0  0  0  0  0  0  0  0  0  0  0
    0.3943    1.2135    0.0000 C   0  0  0  0  0  0  0  0  0  0  0  0
    1.2760    0.0000    0.0000 C   0  0  0  0  0  0  0  0  0  0  0  0
    0.3943   -1.2135    0.0000 C   0  0  0  0  0  0  0  0  0  0  0  0
   -1.0323   -0.7500    0.0000 C   0  0  0  0  0  0  0  0  0  0  0  0
   -1.0323    0.7500    0.0000 N   0  0  0  0  0  0  0  0  0  0  0  0
   -2.4995    1.0619    0.0000 C   0  0  0  0  0  0  0  0  0  0  0  0
   -3.1805   -0.2746    0.0000 O   0  0  0  0  0  0  0  0  0  0  0  0
   -3.6142    2.0656    0.0000 C   0  0  0  0  0  0  0  0  0  0  0  0
   -4.8722    1.2486    0.0000 C   0  0  0  0  0  0  0  0  0  0  0  0
   -6.2087    1.9296    0.0000 C   0  0  0  0  0  0  0  0  0  0  0  0
   -6.2872    3.4275    0.0000 C   0  0  0  0  0  0  0  0  0  0  0  0
   -7.6238    4.1085    0.0000 C   0  0  0  0  0  0  0  0  0  0  0  0
   -8.8818    3.2916    0.0000 C   0  0  0  0  0  0  0  0  0  0  0  0
   -8.8033    1.7936    0.0000 C   0  0  0  0  0  0  0  0  0  0  0  0
   -7.4667    1.1126    0.0000 C   0  0  0  0  0  0  0  0  0  0  0  0
   -4.0778    3.4921    0.0000 N   0  0  0  0  0  0  0  0  0  0  0  0
   -3.7659    4.9594    0.0000 C   0  0  0  0  0  0  0  0  0  0  0  0
   -5.1024    5.6404    0.0000 O   0  0  0  0  0  0  0  0  0  0  0  0
   -2.7622    6.0741    0.0000 C   0  0  0  0  0  0  0  0  0  0  0  0
   -3.5791    7.3321    0.0000 C   0  0  0  0  0  0  0  0  0  0  0  0
   -2.8982    8.6686    0.0000 C   0  0  0  0  0  0  0  0  0  0  0  0
   -1.4166    8.9033    0.0000 C   0  0  0  0  0  0  0  0  0  0  0  0
   -1.1820   10.3848    0.0000 N   0  0  0  0  0  0  0  0  0  0  0  0
   -2.5185   11.0658    0.0000 C   0  0  0  0  0  0  0  0  0  0  0  0
   -2.9067   12.5147    0.0000 C   0  0  0  0  0  0  0  0  0  0  0  0
   -4.3556   12.9029    0.0000 C   0  0  0  0  0  0  0  0  0  0  0  0
   -5.4163   11.8422    0.0000 C   0  0  0  0  0  0  0  0  0  0  0  0
   -5.0280   10.3933    0.0000 C   0  0  0  0  0  0  0  0  0  0  0  0
   -3.5791   10.0051    0.0000 C   0  0  0  0  0  0  0  0  0  0  0  0
   -1.3356    6.5376    0.0000 N   0  0  0  0  0  0  0  0  0  0  0  0
    0.1316    6.2257    0.0000 C   0  0  0  0  0  0  0  0  0  0  0  0
    0.8126    7.5623    0.0000 O   0  0  0  0  0  0  0  0  0  0  0  0
  1  2  1  0
  2  3  1  0
  2  4  1  0
  4  5  2  0
  4  6  1  0
  6  7  1  0
  7  8  1  0
  8  9  1  0
  9 10  1  0
 10 11  1  0
 11 12  1  0
 12 13  1  0
 13 14  2  0
 13 15  1  0
 15 16  1  0
 16 17  1  0
 17 18  1  0
 18 19  1  0
 19 20  1  0
 20 21  2  0
 20 22  1  0
 22 23  1  0
 23 24  1  0
 24 25  2  0
 25 26  1  0
 26 27  2  0
 27 28  1  0
 28 29  2  0
 22 30  1  0
 30 31  1  0
 31 32  2  0
 31 33  1  0
 33 34  1  0
 34 35  1  0
 35 36  2  0
 36 37  1  0
 37 38  1  0
 38 39  2  0
 39 40  1  0
 40 41  2  0
 41 42  1  0
 42 43  2  0
 33 44  1  0
 44 45  1  0
 45 46  2  0
 45 11  1  0
 19 15  1  0
 29 24  1  0
 43 35  1  0
 43 38  1  0
M  END
>  <molecule_chembl_id>  (804) 
CHEMBL1096981

>  <canonical_smiles>  (804) 
CC(O)C(=O)CCCCCC1NC(=O)C2CCCN2C(=O)C(Cc2ccccc2)NC(=O)C(Cc2c[nH]c3ccccc23)NC1=O

>  <pchembl_value_mean>  (804) 
6.75

>  <document_chembl_id>  (804) 
CHEMBL1158553

$$$$

     RDKit          2D

 29 32  0  0  0  0  0  0  0  0999 V2000
    3.0000    0.0000    0.0000 N   0  0  0  0  0  0  0  0  0  0  0  0
    1.5000    0.0000    0.0000 C   0  0  0  0  0  0  0  0  0  0  0  0
    0.7500   -1.2990    0.0000 C   0  0  0  0  0  0  0  0  0  0  0  0
   -0.7500   -1.2990    0.0000 C   0  0  0  0  0  0  0  0  0  0  0  0
   -1.5000    0.0000    0.0000 C   0  0  0  0  0  0  0  0  0  0  0  0
   -0.7500    1.2990    0.0000 C   0  0  0  0  0  0  0  0  0  0  0  0
    0.7500    1.2990    0.0000 C   0  0  0  0  0  0  0  0  0  0  0  0
    1.5000    2.5981    0.0000 N   0  0  0  0  0  0  0  0  0  0  0  0
    0.7500    3.8971    0.0000 C   0  0  0  0  0  0  0  0  0  0  0  0
   -0.7500    3.8971    0.0000 O   0  0  0  0  0  0  0  0  0  0  0  0
    1.5000    5.1962    0.0000 C   0  0  0  0  0  0  0  0  0  0  0  0
    3.0000    5.1962    0.0000 C   0  0  0  0  0  0  0  0  0  0  0  0
    3.7500    6.4952    0.0000 C   0  0  0  0  0  0  0  0  0  0  0  0
    3.0000    7.7942    0.0000 C   0  0  0  0  0  0  0  0  0  0  0  0
    3.7500    9.0933    0.0000 C   0  0  0  0  0  0  0  0  0  0  0  0
    5.2500    9.0933    0.0000 S   0  0  0  0  0  0  0  0  0  0  0  0
    6.0000   10.3923    0.0000 C   0  0  0  0  0  0  0  0  0  0  0  0
    5.3899   11.7626    0.0000 N   0  0  0  0  0  0  0  0  0  0  0  0
    6.5046   12.7663    0.0000 C   0  0  0  0  0  0  0  0  0  0  0  0
    6.3478   14.2581    0.0000 C   0  0  0  0  0  0  0  0  0  0  0  0
    7.5613   15.1398    0.0000 C   0  0  0  0  0  0  0  0  0  0  0  0
    7.4046   16.6316    0.0000 C   0  0  0  0  0  0  0  0  0  0  0  0
    6.0342   17.2417    0.0000 C   0  0  0  0  0  0  0  0  0  0  0  0
    4.8207   16.3600    0.0000 C   0  0  0  0  0  0  0  0  0  0  0  0
    4.9775   14.8682    0.0000 C   0  0  0  0  0  0  0  0  0  0  0  0
    7.8037   12.0163    0.0000 C   0  0  0  0  0  0  0  0  0  0  0  0
    7.4918   10.5491    0.0000 N   0  0  0  0  0  0  0  0  0  0  0  0
    1.5000    7.7942    0.0000 C   0  0  0  0  0  0  0  0  0  0  0  0
    0.7500    6.4952    0.0000 C   0  0  0  0  0  0  0  0  0  0  0  0
  1  2  1  0
  2  3  2  0
  3  4  1  0
  4  5  2  0
  5  6  1  0
  6  7  2  0
  7  8  1  0
  8  9  1  0
  9 10  2  0
  9 11  1  0
 11 12  2  0
 12 13  1  0
 13 14  2  0
 14 15  1  0
 15 16  1  0
 16 17  1  0
 17 18  2  0
 18 19  1  0
 19 20  1  0
 20 21  2  0
 21 22  1  0
 22 23  2  0
 23 24  1  0
 24 25  2  0
 19 26  1  0
 26 27  1  0
 14 28  1  0
 28 29  2  0
  7  2  1  0
 29 11  1  0
 27 17  1  0
 25 20  1  0
M  END
>  <molecule_chembl_id>  (805) 
CHEMBL3605416

>  <canonical_smiles>  (805) 
Nc1ccccc1NC(=O)c1ccc(CSC2=NC(c3ccccc3)CN2)cc1

>  <pchembl_value_mean>  (805) 
6.75

>  <document_chembl_id>  (805) 
CHEMBL3603817

$$$$

     RDKit          2D

 41 45  0  0  0  0  0  0  0  0999 V2000
   -4.2606  -17.4695    0.0000 C   0  0  0  0  0  0  0  0  0  0  0  0
   -4.1038  -15.9777    0.0000 C   0  0  0  0  0  0  0  0  0  0  0  0
   -2.7335  -15.3676    0.0000 C   0  0  0  0  0  0  0  0  0  0  0  0
   -1.5200  -16.2493    0.0000 O   0  0  0  0  0  0  0  0  0  0  0  0
   -2.5767  -13.8758    0.0000 C   0  0  0  0  0  0  0  0  0  0  0  0
   -1.2064  -13.2657    0.0000 C   0  0  0  0  0  0  0  0  0  0  0  0
   -1.0496  -11.7739    0.0000 C   0  0  0  0  0  0  0  0  0  0  0  0
    0.3207  -11.1638    0.0000 C   0  0  0  0  0  0  0  0  0  0  0  0
    0.4775   -9.6721    0.0000 C   0  0  0  0  0  0  0  0  0  0  0  0
    1.8478   -9.0619    0.0000 C   0  0  0  0  0  0  0  0  0  0  0  0
    3.0613   -9.9436    0.0000 N   0  0  0  0  0  0  0  0  0  0  0  0
    2.9046  -11.4354    0.0000 C   0  0  0  0  0  0  0  0  0  0  0  0
    1.5342  -12.0455    0.0000 O   0  0  0  0  0  0  0  0  0  0  0  0
    4.1181  -12.3171    0.0000 C   0  0  0  0  0  0  0  0  0  0  0  0
    5.6099  -12.4739    0.0000 C   0  0  0  0  0  0  0  0  0  0  0  0
    4.7282  -13.6874    0.0000 C   0  0  0  0  0  0  0  0  0  0  0  0
    3.3579  -14.2975    0.0000 C   0  0  0  0  0  0  0  0  0  0  0  0
    3.2011  -15.7893    0.0000 C   0  0  0  0  0  0  0  0  0  0  0  0
    4.4146  -16.6710    0.0000 N   0  0  0  0  0  0  0  0  0  0  0  0
    4.2578  -18.1628    0.0000 C   0  0  0  0  0  0  0  0  0  0  0  0
    5.7849  -16.0609    0.0000 C   0  0  0  0  0  0  0  0  0  0  0  0
    5.9417  -14.5691    0.0000 C   0  0  0  0  0  0  0  0  0  0  0  0
    2.0046   -7.5702    0.0000 C   0  0  0  0  0  0  0  0  0  0  0  0
    0.8899   -6.5665    0.0000 N   0  0  0  0  0  0  0  0  0  0  0  0
    1.5000   -5.1962    0.0000 C   0  0  0  0  0  0  0  0  0  0  0  0
    0.7500   -3.8971    0.0000 C   0  0  0  0  0  0  0  0  0  0  0  0
    1.5000   -2.5981    0.0000 C   0  0  0  0  0  0  0  0  0  0  0  0
    0.7500   -1.2990    0.0000 C   0  0  0  0  0  0  0  0  0  0  0  0
    1.5000    0.0000    0.0000 C   0  0  0  0  0  0  0  0  0  0  0  0
    0.7500    1.2990    0.0000 C   0  0  0  0  0  0  0  0  0  0  0  0
   -0.7500    1.2990    0.0000 C   0  0  0  0  0  0  0  0  0  0  0  0
   -1.5000    0.0000    0.0000 C   0  0  0  0  0  0  0  0  0  0  0  0
   -0.7500   -1.2990    0.0000 C   0  0  0  0  0  0  0  0  0  0  0  0
   -1.5000   -2.5981    0.0000 N   0  0  0  0  0  0  0  0  0  0  0  0
   -0.7500   -3.8971    0.0000 C   0  0  0  0  0  0  0  0  0  0  0  0
   -1.5000   -5.1962    0.0000 O   0  0  0  0  0  0  0  0  0  0  0  0
   -3.0000   -5.1962    0.0000 C   0  0  0  0  0  0  0  0  0  0  0  0
    2.9918   -5.3529    0.0000 N   0  0  0  0  0  0  0  0  0  0  0  0
    3.3037   -6.8202    0.0000 C   0  0  0  0  0  0  0  0  0  0  0  0
    4.6740   -7.4303    0.0000 C   0  0  0  0  0  0  0  0  0  0  0  0
    6.0443   -8.0404    0.0000 N   0  0  0  0  0  0  0  0  0  0  0  0
  1  2  1  0
  2  3  1  0
  3  4  2  0
  3  5  1  0
  5  6  1  0
  6  7  1  0
  7  8  1  0
  8  9  1  0
  9 10  1  0
 10 11  1  0
 11 12  1  0
 12 13  2  0
 12 14  1  0
 14 15  1  0
 15 16  1  0
 16 17  1  0
 17 18  1  0
 18 19  1  0
 19 20  1  0
 19 21  1  0
 21 22  1  0
 10 23  1  0
 23 24  1  0
 24 25  1  0
 25 26  1  0
 26 27  2  0
 27 28  1  0
 28 29  2  0
 29 30  1  0
 30 31  2  0
 31 32  1  0
 32 33  2  0
 33 34  1  0
 34 35  2  0
 35 36  1  0
 36 37  1  0
 25 38  2  0
 38 39  1  0
 39 40  1  0
 40 41  3  0
 16 14  1  0
 39 23  2  0
 22 16  1  0
 35 26  1  0
 33 28  1  0
M  END
>  <molecule_chembl_id>  (806) 
CHEMBL4765128

>  <canonical_smiles>  (806) 
CCC(=O)CCCCCC(NC(=O)C1CC12CCN(C)CC2)c1[nH]c(-c2cc3ccccc3nc2OC)nc1C#N

>  <pchembl_value_mean>  (806) 
6.75

>  <document_chembl_id>  (806) 
CHEMBL4665726

$$$$

     RDKit          2D

 43 47  0  0  0  0  0  0  0  0999 V2000
    1.9979  -12.6093    0.0000 C   0  0  0  0  0  0  0  0  0  0  0  0
    2.3097  -11.1421    0.0000 O   0  0  0  0  0  0  0  0  0  0  0  0
    1.1950  -10.1384    0.0000 C   0  0  0  0  0  0  0  0  0  0  0  0
   -0.2316  -10.6019    0.0000 C   0  0  0  0  0  0  0  0  0  0  0  0
   -1.3463   -9.5982    0.0000 C   0  0  0  0  0  0  0  0  0  0  0  0
   -1.0344   -8.1310    0.0000 C   0  0  0  0  0  0  0  0  0  0  0  0
   -2.1491   -7.1273    0.0000 C   0  0  0  0  0  0  0  0  0  0  0  0
   -3.5757   -7.5908    0.0000 O   0  0  0  0  0  0  0  0  0  0  0  0
   -1.8373   -5.6601    0.0000 N   0  0  0  0  0  0  0  0  0  0  0  0
   -2.9520   -4.6564    0.0000 C   0  0  0  0  0  0  0  0  0  0  0  0
   -2.6401   -3.1891    0.0000 C   0  0  0  0  0  0  0  0  0  0  0  0
   -1.2135   -2.7256    0.0000 C   0  0  0  0  0  0  0  0  0  0  0  0
   -0.0000   -3.6073    0.0000 C   0  0  0  0  0  0  0  0  0  0  0  0
    1.2135   -2.7256    0.0000 N   0  0  0  0  0  0  0  0  0  0  0  0
    0.7500   -1.2990    0.0000 C   0  0  0  0  0  0  0  0  0  0  0  0
    1.5000    0.0000    0.0000 C   0  0  0  0  0  0  0  0  0  0  0  0
    0.7500    1.2990    0.0000 C   0  0  0  0  0  0  0  0  0  0  0  0
   -0.7500    1.2990    0.0000 C   0  0  0  0  0  0  0  0  0  0  0  0
   -1.5000    0.0000    0.0000 C   0  0  0  0  0  0  0  0  0  0  0  0
   -0.7500   -1.2990    0.0000 C   0  0  0  0  0  0  0  0  0  0  0  0
   -4.3786   -5.1199    0.0000 C   0  0  0  0  0  0  0  0  0  0  0  0
   -5.4933   -4.1162    0.0000 O   0  0  0  0  0  0  0  0  0  0  0  0
   -4.6904   -6.5871    0.0000 N   0  0  0  0  0  0  0  0  0  0  0  0
   -6.1170   -7.0506    0.0000 C   0  0  0  0  0  0  0  0  0  0  0  0
   -6.4289   -8.5179    0.0000 C   0  0  0  0  0  0  0  0  0  0  0  0
   -7.8555   -8.9814    0.0000 C   0  0  0  0  0  0  0  0  0  0  0  0
   -8.1673  -10.4486    0.0000 C   0  0  0  0  0  0  0  0  0  0  0  0
   -7.0526  -11.4523    0.0000 C   0  0  0  0  0  0  0  0  0  0  0  0
   -7.3645  -12.9195    0.0000 C   0  0  0  0  0  0  0  0  0  0  0  0
   -6.2498  -13.9232    0.0000 O   0  0  0  0  0  0  0  0  0  0  0  0
   -8.7911  -13.3831    0.0000 N   0  0  0  0  0  0  0  0  0  0  0  0
   -9.1029  -14.8503    0.0000 C   0  0  0  0  0  0  0  0  0  0  0  0
  -10.5295  -15.3138    0.0000 C   0  0  0  0  0  0  0  0  0  0  0  0
  -10.8414  -16.7810    0.0000 C   0  0  0  0  0  0  0  0  0  0  0  0
   -9.7267  -17.7847    0.0000 C   0  0  0  0  0  0  0  0  0  0  0  0
  -10.0385  -19.2519    0.0000 F   0  0  0  0  0  0  0  0  0  0  0  0
   -8.3001  -17.3212    0.0000 C   0  0  0  0  0  0  0  0  0  0  0  0
   -7.9882  -15.8540    0.0000 C   0  0  0  0  0  0  0  0  0  0  0  0
   -6.5616  -15.3904    0.0000 N   0  0  0  0  0  0  0  0  0  0  0  0
   -5.6260  -10.9888    0.0000 C   0  0  0  0  0  0  0  0  0  0  0  0
   -5.3142   -9.5216    0.0000 C   0  0  0  0  0  0  0  0  0  0  0  0
    0.3922   -7.6675    0.0000 C   0  0  0  0  0  0  0  0  0  0  0  0
    1.5069   -8.6712    0.0000 C   0  0  0  0  0  0  0  0  0  0  0  0
  1  2  1  0
  2  3  1  0
  3  4  2  0
  4  5  1  0
  5  6  2  0
  6  7  1  0
  7  8  2  0
  7  9  1  0
  9 10  1  0
 10 11  1  0
 11 12  1  0
 12 13  2  0
 13 14  1  0
 14 15  1  0
 15 16  2  0
 16 17  1  0
 17 18  2  0
 18 19  1  0
 19 20  2  0
 10 21  1  0
 21 22  2  0
 21 23  1  0
 23 24  1  0
 24 25  1  0
 25 26  2  0
 26 27  1  0
 27 28  2  0
 28 29  1  0
 29 30  2  0
 29 31  1  0
 31 32  1  0
 32 33  2  0
 33 34  1  0
 34 35  2  0
 35 36  1  0
 35 37  1  0
 37 38  2  0
 38 39  1  0
 28 40  1  0
 40 41  2  0
  6 42  1  0
 42 43  2  0
 43  3  1  0
 20 12  1  0
 41 25  1  0
 20 15  1  0
 38 32  1  0
M  END
>  <molecule_chembl_id>  (807) 
CHEMBL4105408

>  <canonical_smiles>  (807) 
COc1ccc(C(=O)NC(Cc2c[nH]c3ccccc23)C(=O)NCc2ccc(C(=O)Nc3ccc(F)cc3N)cc2)cc1

>  <pchembl_value_mean>  (807) 
6.75

>  <document_chembl_id>  (807) 
CHEMBL4020724

$$$$

     RDKit          2D

 38 42  0  0  0  0  0  0  0  0999 V2000
    6.7244    6.0021    0.0000 C   0  0  0  0  0  0  0  0  0  0  0  0
    5.6097    7.0058    0.0000 O   0  0  0  0  0  0  0  0  0  0  0  0
    4.1831    6.5422    0.0000 C   0  0  0  0  0  0  0  0  0  0  0  0
    3.8712    5.0750    0.0000 C   0  0  0  0  0  0  0  0  0  0  0  0
    2.4446    4.6115    0.0000 C   0  0  0  0  0  0  0  0  0  0  0  0
    2.1328    3.1443    0.0000 N   0  0  0  0  0  0  0  0  0  0  0  0
    0.7062    2.6807    0.0000 C   0  0  0  0  0  0  0  0  0  0  0  0
   -0.4086    3.6844    0.0000 N   0  0  0  0  0  0  0  0  0  0  0  0
   -1.8351    3.2209    0.0000 C   0  0  0  0  0  0  0  0  0  0  0  0
   -2.9499    4.2246    0.0000 N   0  0  0  0  0  0  0  0  0  0  0  0
   -2.1470    1.7537    0.0000 N   0  0  0  0  0  0  0  0  0  0  0  0
   -1.0323    0.7500    0.0000 C   0  0  0  0  0  0  0  0  0  0  0  0
    0.3943    1.2135    0.0000 C   0  0  0  0  0  0  0  0  0  0  0  0
    1.2760    0.0000    0.0000 N   0  0  0  0  0  0  0  0  0  0  0  0
    0.3943   -1.2135    0.0000 C   0  0  0  0  0  0  0  0  0  0  0  0
   -1.0323   -0.7500    0.0000 N   0  0  0  0  0  0  0  0  0  0  0  0
   -2.2458   -1.6317    0.0000 C   0  0  0  0  0  0  0  0  0  0  0  0
   -2.0890   -3.1235    0.0000 C   0  0  0  0  0  0  0  0  0  0  0  0
   -3.3025   -4.0051    0.0000 C   0  0  0  0  0  0  0  0  0  0  0  0
   -3.1458   -5.4969    0.0000 C   0  0  0  0  0  0  0  0  0  0  0  0
   -1.7754   -6.1070    0.0000 C   0  0  0  0  0  0  0  0  0  0  0  0
   -1.6186   -7.5988    0.0000 C   0  0  0  0  0  0  0  0  0  0  0  0
   -0.2483   -8.2089    0.0000 O   0  0  0  0  0  0  0  0  0  0  0  0
   -2.8322   -8.4805    0.0000 N   0  0  0  0  0  0  0  0  0  0  0  0
   -2.6754   -9.9723    0.0000 C   0  0  0  0  0  0  0  0  0  0  0  0
   -3.8889  -10.8539    0.0000 C   0  0  0  0  0  0  0  0  0  0  0  0
   -3.7321  -12.3457    0.0000 C   0  0  0  0  0  0  0  0  0  0  0  0
   -2.3618  -12.9558    0.0000 C   0  0  0  0  0  0  0  0  0  0  0  0
   -1.1483  -12.0742    0.0000 C   0  0  0  0  0  0  0  0  0  0  0  0
   -1.3051  -10.5824    0.0000 C   0  0  0  0  0  0  0  0  0  0  0  0
   -0.0915   -9.7007    0.0000 N   0  0  0  0  0  0  0  0  0  0  0  0
   -0.5619   -5.2253    0.0000 C   0  0  0  0  0  0  0  0  0  0  0  0
   -0.7187   -3.7336    0.0000 C   0  0  0  0  0  0  0  0  0  0  0  0
    1.3299    5.6152    0.0000 C   0  0  0  0  0  0  0  0  0  0  0  0
    1.6418    7.0824    0.0000 C   0  0  0  0  0  0  0  0  0  0  0  0
    0.5271    8.0861    0.0000 O   0  0  0  0  0  0  0  0  0  0  0  0
    0.8389    9.5533    0.0000 C   0  0  0  0  0  0  0  0  0  0  0  0
    3.0684    7.5459    0.0000 C   0  0  0  0  0  0  0  0  0  0  0  0
  1  2  1  0
  2  3  1  0
  3  4  2  0
  4  5  1  0
  5  6  1  0
  6  7  1  0
  7  8  2  0
  8  9  1  0
  9 10  1  0
  9 11  2  0
 11 12  1  0
 12 13  2  0
 13 14  1  0
 14 15  2  0
 15 16  1  0
 16 17  1  0
 17 18  1  0
 18 19  2  0
 19 20  1  0
 20 21  2  0
 21 22  1  0
 22 23  2  0
 22 24  1  0
 24 25  1  0
 25 26  2  0
 26 27  1  0
 27 28  2  0
 28 29  1  0
 29 30  2  0
 30 31  1  0
 21 32  1  0
 32 33  2  0
  5 34  2  0
 34 35  1  0
 35 36  1  0
 36 37  1  0
 35 38  2  0
 38  3  1  0
 13  7  1  0
 33 18  1  0
 16 12  1  0
 30 25  1  0
M  END
>  <molecule_chembl_id>  (808) 
CHEMBL4789410

>  <canonical_smiles>  (808) 
COc1cc(Nc2nc(N)nc3c2ncn3Cc2ccc(C(=O)Nc3ccccc3N)cc2)cc(OC)c1

>  <pchembl_value_mean>  (808) 
6.75

>  <document_chembl_id>  (808) 
CHEMBL4765296

$$$$

     RDKit          2D

 21 22  0  0  0  0  0  0  0  0999 V2000
    8.2500   -3.8971    0.0000 C   0  0  0  0  0  0  0  0  0  0  0  0
    7.5000   -2.5981    0.0000 C   0  0  0  0  0  0  0  0  0  0  0  0
    6.0000   -2.5981    0.0000 C   0  0  0  0  0  0  0  0  0  0  0  0
    5.2500   -1.2990    0.0000 N   0  0  0  0  0  0  0  0  0  0  0  0
    3.7500   -1.2990    0.0000 N   0  0  0  0  0  0  0  0  0  0  0  0
    3.0000    0.0000    0.0000 C   0  0  0  0  0  0  0  0  0  0  0  0
    3.7500    1.2990    0.0000 O   0  0  0  0  0  0  0  0  0  0  0  0
    1.5000    0.0000    0.0000 C   0  0  0  0  0  0  0  0  0  0  0  0
    0.7500   -1.2990    0.0000 C   0  0  0  0  0  0  0  0  0  0  0  0
   -0.7500   -1.2990    0.0000 C   0  0  0  0  0  0  0  0  0  0  0  0
   -1.5000    0.0000    0.0000 C   0  0  0  0  0  0  0  0  0  0  0  0
   -3.0000    0.0000    0.0000 O   0  0  0  0  0  0  0  0  0  0  0  0
   -3.7500    1.2990    0.0000 C   0  0  0  0  0  0  0  0  0  0  0  0
   -5.2500    1.2990    0.0000 C   0  0  0  0  0  0  0  0  0  0  0  0
   -6.0000    2.5981    0.0000 C   0  0  0  0  0  0  0  0  0  0  0  0
   -7.5000    2.5981    0.0000 C   0  0  0  0  0  0  0  0  0  0  0  0
   -8.2500    1.2990    0.0000 C   0  0  0  0  0  0  0  0  0  0  0  0
   -7.5000    0.0000    0.0000 C   0  0  0  0  0  0  0  0  0  0  0  0
   -6.0000    0.0000    0.0000 C   0  0  0  0  0  0  0  0  0  0  0  0
   -0.7500    1.2990    0.0000 C   0  0  0  0  0  0  0  0  0  0  0  0
    0.7500    1.2990    0.0000 C   0  0  0  0  0  0  0  0  0  0  0  0
  1  2  1  0
  2  3  1  0
  3  4  1  0
  4  5  1  0
  5  6  1  0
  6  7  2  0
  6  8  1  0
  8  9  2  0
  9 10  1  0
 10 11  2  0
 11 12  1  0
 12 13  1  0
 13 14  1  0
 14 15  2  0
 15 16  1  0
 16 17  2  0
 17 18  1  0
 18 19  2  0
 11 20  1  0
 20 21  2  0
 21  8  1  0
 19 14  1  0
M  END
>  <molecule_chembl_id>  (809) 
CHEMBL4435691

>  <canonical_smiles>  (809) 
CCCNNC(=O)c1ccc(OCc2ccccc2)cc1

>  <pchembl_value_mean>  (809) 
6.76

>  <document_chembl_id>  (809) 
CHEMBL4342521

$$$$

     RDKit          2D

 24 26  0  0  0  0  0  0  0  0999 V2000
    3.7500    1.2990    0.0000 O   0  0  0  0  0  0  0  0  0  0  0  0
    3.0000    0.0000    0.0000 C   0  0  0  0  0  0  0  0  0  0  0  0
    3.7500   -1.2990    0.0000 N   0  0  0  0  0  0  0  0  0  0  0  0
    5.2500   -1.2990    0.0000 O   0  0  0  0  0  0  0  0  0  0  0  0
    1.5000    0.0000    0.0000 C   0  0  0  0  0  0  0  0  0  0  0  0
    0.7500   -1.2990    0.0000 C   0  0  0  0  0  0  0  0  0  0  0  0
   -0.7500   -1.2990    0.0000 C   0  0  0  0  0  0  0  0  0  0  0  0
   -1.5000    0.0000    0.0000 C   0  0  0  0  0  0  0  0  0  0  0  0
   -3.0000    0.0000    0.0000 C   0  0  0  0  0  0  0  0  0  0  0  0
   -3.7500    1.2990    0.0000 N   0  0  0  0  0  0  0  0  0  0  0  0
   -5.2500    1.2990    0.0000 C   0  0  0  0  0  0  0  0  0  0  0  0
   -6.0000    2.5981    0.0000 N   0  0  0  0  0  0  0  0  0  0  0  0
   -7.5000    2.5981    0.0000 C   0  0  0  0  0  0  0  0  0  0  0  0
   -8.2500    1.2990    0.0000 C   0  0  0  0  0  0  0  0  0  0  0  0
   -7.5000    0.0000    0.0000 C   0  0  0  0  0  0  0  0  0  0  0  0
   -8.2500   -1.2990    0.0000 C   0  0  0  0  0  0  0  0  0  0  0  0
   -9.7500   -1.2990    0.0000 C   0  0  0  0  0  0  0  0  0  0  0  0
  -10.5000   -2.5981    0.0000 C   0  0  0  0  0  0  0  0  0  0  0  0
   -9.7500   -3.8971    0.0000 C   0  0  0  0  0  0  0  0  0  0  0  0
   -8.2500   -3.8971    0.0000 N   0  0  0  0  0  0  0  0  0  0  0  0
   -7.5000   -2.5981    0.0000 C   0  0  0  0  0  0  0  0  0  0  0  0
   -6.0000    0.0000    0.0000 N   0  0  0  0  0  0  0  0  0  0  0  0
   -0.7500    1.2990    0.0000 C   0  0  0  0  0  0  0  0  0  0  0  0
    0.7500    1.2990    0.0000 C   0  0  0  0  0  0  0  0  0  0  0  0
  1  2  2  0
  2  3  1  0
  3  4  1  0
  2  5  1  0
  5  6  2  0
  6  7  1  0
  7  8  2  0
  8  9  1  0
  9 10  1  0
 10 11  1  0
 11 12  2  0
 12 13  1  0
 13 14  2  0
 14 15  1  0
 15 16  1  0
 16 17  2  0
 17 18  1  0
 18 19  2  0
 19 20  1  0
 20 21  2  0
 15 22  2  0
  8 23  1  0
 23 24  2  0
 24  5  1  0
 22 11  1  0
 21 16  1  0
M  END
>  <molecule_chembl_id>  (810) 
CHEMBL2407730

>  <canonical_smiles>  (810) 
O=C(NO)c1ccc(CNc2nccc(-c3cccnc3)n2)cc1

>  <pchembl_value_mean>  (810) 
6.765

>  <document_chembl_id>  (810) 
CHEMBL2407081

$$$$

     RDKit          2D

 19 20  0  0  0  0  0  0  0  0999 V2000
    3.7500    1.2990    0.0000 O   0  0  0  0  0  0  0  0  0  0  0  0
    3.0000    0.0000    0.0000 C   0  0  0  0  0  0  0  0  0  0  0  0
    3.7500   -1.2990    0.0000 N   0  0  0  0  0  0  0  0  0  0  0  0
    5.2500   -1.2990    0.0000 O   0  0  0  0  0  0  0  0  0  0  0  0
    1.5000    0.0000    0.0000 C   0  0  0  0  0  0  0  0  0  0  0  0
    0.7500   -1.2990    0.0000 C   0  0  0  0  0  0  0  0  0  0  0  0
   -0.7500   -1.2990    0.0000 N   0  0  0  0  0  0  0  0  0  0  0  0
   -1.5000    0.0000    0.0000 C   0  0  0  0  0  0  0  0  0  0  0  0
   -3.0000    0.0000    0.0000 N   0  0  0  0  0  0  0  0  0  0  0  0
   -3.7500    1.2990    0.0000 C   0  0  0  0  0  0  0  0  0  0  0  0
   -3.0000    2.5981    0.0000 C   0  0  0  0  0  0  0  0  0  0  0  0
   -3.7500    3.8971    0.0000 C   0  0  0  0  0  0  0  0  0  0  0  0
   -3.0000    5.1962    0.0000 F   0  0  0  0  0  0  0  0  0  0  0  0
   -5.2500    3.8971    0.0000 C   0  0  0  0  0  0  0  0  0  0  0  0
   -6.0000    2.5981    0.0000 C   0  0  0  0  0  0  0  0  0  0  0  0
   -7.5000    2.5981    0.0000 F   0  0  0  0  0  0  0  0  0  0  0  0
   -5.2500    1.2990    0.0000 C   0  0  0  0  0  0  0  0  0  0  0  0
   -0.7500    1.2990    0.0000 N   0  0  0  0  0  0  0  0  0  0  0  0
    0.7500    1.2990    0.0000 C   0  0  0  0  0  0  0  0  0  0  0  0
  1  2  2  0
  2  3  1  0
  3  4  1  0
  2  5  1  0
  5  6  2  0
  6  7  1  0
  7  8  2  0
  8  9  1  0
  9 10  1  0
 10 11  2  0
 11 12  1  0
 12 13  1  0
 12 14  2  0
 14 15  1  0
 15 16  1  0
 15 17  2  0
  8 18  1  0
 18 19  2  0
 19  5  1  0
 17 10  1  0
M  END
>  <molecule_chembl_id>  (811) 
CHEMBL3652238

>  <canonical_smiles>  (811) 
O=C(NO)c1cnc(Nc2cc(F)cc(F)c2)nc1

>  <pchembl_value_mean>  (811) 
6.77

>  <document_chembl_id>  (811) 
CHEMBL3639071

$$$$

     RDKit          2D

 18 19  0  0  0  0  0  0  0  0999 V2000
    3.0000   -5.1962    0.0000 O   0  0  0  0  0  0  0  0  0  0  0  0
    1.5000   -5.1962    0.0000 C   0  0  0  0  0  0  0  0  0  0  0  0
    0.7500   -3.8971    0.0000 C   0  0  0  0  0  0  0  0  0  0  0  0
    1.5000   -2.5981    0.0000 C   0  0  0  0  0  0  0  0  0  0  0  0
    3.0000   -2.5981    0.0000 C   0  0  0  0  0  0  0  0  0  0  0  0
    3.7500   -3.8971    0.0000 O   0  0  0  0  0  0  0  0  0  0  0  0
    0.7500   -1.2990    0.0000 C   0  0  0  0  0  0  0  0  0  0  0  0
    1.5000    0.0000    0.0000 C   0  0  0  0  0  0  0  0  0  0  0  0
    0.7500    1.2990    0.0000 C   0  0  0  0  0  0  0  0  0  0  0  0
   -0.7500    1.2990    0.0000 C   0  0  0  0  0  0  0  0  0  0  0  0
   -1.5000    0.0000    0.0000 C   0  0  0  0  0  0  0  0  0  0  0  0
   -0.7500   -1.2990    0.0000 C   0  0  0  0  0  0  0  0  0  0  0  0
    0.7500   -6.4952    0.0000 C   0  0  0  0  0  0  0  0  0  0  0  0
   -0.7500   -6.4952    0.0000 C   0  0  0  0  0  0  0  0  0  0  0  0
   -1.5000   -7.7942    0.0000 C   0  0  0  0  0  0  0  0  0  0  0  0
   -0.7500   -9.0933    0.0000 C   0  0  0  0  0  0  0  0  0  0  0  0
    0.7500   -9.0933    0.0000 C   0  0  0  0  0  0  0  0  0  0  0  0
    1.5000   -7.7942    0.0000 C   0  0  0  0  0  0  0  0  0  0  0  0
  1  2  2  0
  2  3  1  0
  3  4  2  3
  4  5  1  0
  5  6  1  0
  4  7  1  0
  7  8  2  0
  8  9  1  0
  9 10  2  0
 10 11  1  0
 11 12  2  0
  2 13  1  0
 13 14  2  0
 14 15  1  0
 15 16  2  0
 16 17  1  0
 17 18  2  0
 12  7  1  0
 18 13  1  0
M  END
>  <molecule_chembl_id>  (812) 
CHEMBL4094099

>  <canonical_smiles>  (812) 
O=C(C=C(CO)c1ccccc1)c1ccccc1

>  <pchembl_value_mean>  (812) 
6.77

>  <document_chembl_id>  (812) 
CHEMBL4033774

$$$$

     RDKit          2D

 25 26  0  0  0  0  0  0  0  0999 V2000
    3.7500   -1.2990    0.0000 C   0  0  0  0  0  0  0  0  0  0  0  0
    3.0000    0.0000    0.0000 O   0  0  0  0  0  0  0  0  0  0  0  0
    1.5000    0.0000    0.0000 C   0  0  0  0  0  0  0  0  0  0  0  0
    0.7500   -1.2990    0.0000 C   0  0  0  0  0  0  0  0  0  0  0  0
   -0.7500   -1.2990    0.0000 C   0  0  0  0  0  0  0  0  0  0  0  0
   -1.5000    0.0000    0.0000 C   0  0  0  0  0  0  0  0  0  0  0  0
   -3.0000    0.0000    0.0000 C   0  0  0  0  0  0  0  0  0  0  0  0
   -3.7500    1.2990    0.0000 C   0  0  0  0  0  0  0  0  0  0  0  0
   -5.2500    1.2990    0.0000 C   0  0  0  0  0  0  0  0  0  0  0  0
   -6.0000    0.0000    0.0000 O   0  0  0  0  0  0  0  0  0  0  0  0
   -6.0000    2.5981    0.0000 N   0  0  0  0  0  0  0  0  0  0  0  0
   -7.5000    2.5981    0.0000 C   0  0  0  0  0  0  0  0  0  0  0  0
   -8.2500    3.8971    0.0000 C   0  0  0  0  0  0  0  0  0  0  0  0
   -9.7500    3.8971    0.0000 C   0  0  0  0  0  0  0  0  0  0  0  0
  -10.5000    5.1962    0.0000 C   0  0  0  0  0  0  0  0  0  0  0  0
  -12.0000    5.1962    0.0000 C   0  0  0  0  0  0  0  0  0  0  0  0
  -12.7500    6.4952    0.0000 C   0  0  0  0  0  0  0  0  0  0  0  0
  -14.2500    6.4952    0.0000 C   0  0  0  0  0  0  0  0  0  0  0  0
  -15.0000    5.1962    0.0000 O   0  0  0  0  0  0  0  0  0  0  0  0
  -15.0000    7.7942    0.0000 N   0  0  0  0  0  0  0  0  0  0  0  0
  -16.5000    7.7942    0.0000 O   0  0  0  0  0  0  0  0  0  0  0  0
   -3.0000    2.5981    0.0000 C   0  0  0  0  0  0  0  0  0  0  0  0
   -1.5000    2.5981    0.0000 C   0  0  0  0  0  0  0  0  0  0  0  0
   -0.7500    1.2990    0.0000 C   0  0  0  0  0  0  0  0  0  0  0  0
    0.7500    1.2990    0.0000 N   0  0  0  0  0  0  0  0  0  0  0  0
  1  2  1  0
  2  3  1  0
  3  4  2  0
  4  5  1  0
  5  6  2  0
  6  7  1  0
  7  8  2  0
  8  9  1  0
  9 10  2  0
  9 11  1  0
 11 12  1  0
 12 13  1  0
 13 14  1  0
 14 15  1  0
 15 16  1  0
 16 17  1  0
 17 18  1  0
 18 19  2  0
 18 20  1  0
 20 21  1  0
  8 22  1  0
 22 23  2  0
 23 24  1  0
 24 25  2  0
 25  3  1  0
 24  6  1  0
M  END
>  <molecule_chembl_id>  (813) 
CHEMBL3309288

>  <canonical_smiles>  (813) 
COc1ccc2cc(C(=O)NCCCCCCC(=O)NO)ccc2n1

>  <pchembl_value_mean>  (813) 
6.77

>  <document_chembl_id>  (813) 
CHEMBL3351757

$$$$

     RDKit          2D

 39 43  0  0  0  0  0  0  0  0999 V2000
   -0.5864  -10.4561    0.0000 C   0  0  0  0  0  0  0  0  0  0  0  0
    0.6272   -9.5744    0.0000 C   0  0  0  0  0  0  0  0  0  0  0  0
    0.4704   -8.0826    0.0000 C   0  0  0  0  0  0  0  0  0  0  0  0
    1.6839   -7.2010    0.0000 C   0  0  0  0  0  0  0  0  0  0  0  0
    1.5271   -5.7092    0.0000 C   0  0  0  0  0  0  0  0  0  0  0  0
    0.1568   -5.0991    0.0000 N   0  0  0  0  0  0  0  0  0  0  0  0
   -0.0000   -3.6073    0.0000 C   0  0  0  0  0  0  0  0  0  0  0  0
   -1.2135   -2.7256    0.0000 S   0  0  0  0  0  0  0  0  0  0  0  0
   -0.7500   -1.2990    0.0000 C   0  0  0  0  0  0  0  0  0  0  0  0
    0.7500   -1.2990    0.0000 C   0  0  0  0  0  0  0  0  0  0  0  0
    1.2135   -2.7256    0.0000 C   0  0  0  0  0  0  0  0  0  0  0  0
    2.5838   -3.3357    0.0000 C   0  0  0  0  0  0  0  0  0  0  0  0
    3.7974   -2.4540    0.0000 O   0  0  0  0  0  0  0  0  0  0  0  0
    2.7406   -4.8275    0.0000 N   0  0  0  0  0  0  0  0  0  0  0  0
    1.5000    0.0000    0.0000 C   0  0  0  0  0  0  0  0  0  0  0  0
    0.7500    1.2990    0.0000 C   0  0  0  0  0  0  0  0  0  0  0  0
   -0.7500    1.2990    0.0000 N   0  0  0  0  0  0  0  0  0  0  0  0
   -1.5000    2.5981    0.0000 C   0  0  0  0  0  0  0  0  0  0  0  0
   -1.5000    0.0000    0.0000 C   0  0  0  0  0  0  0  0  0  0  0  0
    3.0542   -7.8111    0.0000 C   0  0  0  0  0  0  0  0  0  0  0  0
    3.2110   -9.3029    0.0000 C   0  0  0  0  0  0  0  0  0  0  0  0
    4.5813   -9.9130    0.0000 C   0  0  0  0  0  0  0  0  0  0  0  0
    1.9975  -10.1845    0.0000 C   0  0  0  0  0  0  0  0  0  0  0  0
    2.1543  -11.6763    0.0000 O   0  0  0  0  0  0  0  0  0  0  0  0
    0.9408  -12.5580    0.0000 C   0  0  0  0  0  0  0  0  0  0  0  0
    1.0975  -14.0498    0.0000 C   0  0  0  0  0  0  0  0  0  0  0  0
   -0.1160  -14.9315    0.0000 C   0  0  0  0  0  0  0  0  0  0  0  0
    0.0408  -16.4232    0.0000 C   0  0  0  0  0  0  0  0  0  0  0  0
   -1.1727  -17.3049    0.0000 C   0  0  0  0  0  0  0  0  0  0  0  0
   -1.0159  -18.7967    0.0000 C   0  0  0  0  0  0  0  0  0  0  0  0
    0.3544  -19.4068    0.0000 O   0  0  0  0  0  0  0  0  0  0  0  0
   -2.2294  -19.6784    0.0000 N   0  0  0  0  0  0  0  0  0  0  0  0
   -2.0726  -21.1702    0.0000 C   0  0  0  0  0  0  0  0  0  0  0  0
   -3.2862  -22.0518    0.0000 C   0  0  0  0  0  0  0  0  0  0  0  0
   -3.1294  -23.5436    0.0000 C   0  0  0  0  0  0  0  0  0  0  0  0
   -1.7591  -24.1537    0.0000 C   0  0  0  0  0  0  0  0  0  0  0  0
   -0.5455  -23.2721    0.0000 C   0  0  0  0  0  0  0  0  0  0  0  0
   -0.7023  -21.7803    0.0000 C   0  0  0  0  0  0  0  0  0  0  0  0
    0.5112  -20.8986    0.0000 N   0  0  0  0  0  0  0  0  0  0  0  0
  1  2  1  0
  2  3  2  0
  3  4  1  0
  4  5  1  0
  5  6  2  0
  6  7  1  0
  7  8  1  0
  8  9  1  0
  9 10  2  0
 10 11  1  0
 11 12  1  0
 12 13  2  0
 12 14  1  0
 10 15  1  0
 15 16  1  0
 16 17  1  0
 17 18  1  0
 17 19  1  0
  4 20  2  0
 20 21  1  0
 21 22  1  0
 21 23  2  0
 23 24  1  0
 24 25  1  0
 25 26  1  0
 26 27  1  0
 27 28  1  0
 28 29  1  0
 29 30  1  0
 30 31  2  0
 30 32  1  0
 32 33  1  0
 33 34  2  0
 34 35  1  0
 35 36  2  0
 36 37  1  0
 37 38  2  0
 38 39  1  0
 23  2  1  0
 38 33  1  0
 14  5  1  0
 11  7  2  0
 19  9  1  0
M  END
>  <molecule_chembl_id>  (814) 
CHEMBL4555072

>  <canonical_smiles>  (814) 
Cc1cc(-c2nc3sc4c(c3c(=O)[nH]2)CCN(C)C4)cc(C)c1OCCCCCC(=O)Nc1ccccc1N

>  <pchembl_value_mean>  (814) 
6.77

>  <document_chembl_id>  (814) 
CHEMBL4342471

$$$$

     RDKit          2D

 33 35  0  0  0  0  0  0  0  0999 V2000
    0.7500  -14.2894    0.0000 C   0  0  0  0  0  0  0  0  0  0  0  0
    1.5000  -12.9904    0.0000 C   0  0  0  0  0  0  0  0  0  0  0  0
    3.0000  -12.9904    0.0000 O   0  0  0  0  0  0  0  0  0  0  0  0
    0.7500  -11.6913    0.0000 C   0  0  0  0  0  0  0  0  0  0  0  0
    1.5000  -10.3923    0.0000 C   0  0  0  0  0  0  0  0  0  0  0  0
    0.7500   -9.0933    0.0000 C   0  0  0  0  0  0  0  0  0  0  0  0
    1.5000   -7.7942    0.0000 C   0  0  0  0  0  0  0  0  0  0  0  0
    0.7500   -6.4952    0.0000 C   0  0  0  0  0  0  0  0  0  0  0  0
    1.5000   -5.1962    0.0000 C   0  0  0  0  0  0  0  0  0  0  0  0
    0.7500   -3.8971    0.0000 N   0  0  0  0  0  0  0  0  0  0  0  0
    1.5000   -2.5981    0.0000 C   0  0  0  0  0  0  0  0  0  0  0  0
    3.0000   -2.5981    0.0000 O   0  0  0  0  0  0  0  0  0  0  0  0
    0.7500   -1.2990    0.0000 C   0  0  0  0  0  0  0  0  0  0  0  0
    1.5000    0.0000    0.0000 C   0  0  0  0  0  0  0  0  0  0  0  0
    0.7500    1.2990    0.0000 C   0  0  0  0  0  0  0  0  0  0  0  0
   -0.7500    1.2990    0.0000 C   0  0  0  0  0  0  0  0  0  0  0  0
   -1.5000    0.0000    0.0000 C   0  0  0  0  0  0  0  0  0  0  0  0
   -0.7500   -1.2990    0.0000 N   0  0  0  0  0  0  0  0  0  0  0  0
   -1.5000   -2.5981    0.0000 C   0  0  0  0  0  0  0  0  0  0  0  0
    3.0000   -5.1962    0.0000 C   0  0  0  0  0  0  0  0  0  0  0  0
    3.7500   -3.8971    0.0000 O   0  0  0  0  0  0  0  0  0  0  0  0
    3.7500   -6.4952    0.0000 N   0  0  0  0  0  0  0  0  0  0  0  0
    5.2500   -6.4952    0.0000 C   0  0  0  0  0  0  0  0  0  0  0  0
    6.1317   -5.2817    0.0000 N   0  0  0  0  0  0  0  0  0  0  0  0
    7.5583   -5.7452    0.0000 C   0  0  0  0  0  0  0  0  0  0  0  0
    8.7718   -4.8635    0.0000 C   0  0  0  0  0  0  0  0  0  0  0  0
   10.1421   -5.4736    0.0000 C   0  0  0  0  0  0  0  0  0  0  0  0
   11.3556   -4.5919    0.0000 C   0  0  0  0  0  0  0  0  0  0  0  0
   11.1988   -3.1002    0.0000 C   0  0  0  0  0  0  0  0  0  0  0  0
    9.8285   -2.4901    0.0000 C   0  0  0  0  0  0  0  0  0  0  0  0
    8.6150   -3.3717    0.0000 C   0  0  0  0  0  0  0  0  0  0  0  0
    7.5583   -7.2452    0.0000 C   0  0  0  0  0  0  0  0  0  0  0  0
    6.1317   -7.7087    0.0000 S   0  0  0  0  0  0  0  0  0  0  0  0
  1  2  1  0
  2  3  2  0
  2  4  1  0
  4  5  1  0
  5  6  1  0
  6  7  1  0
  7  8  1  0
  8  9  1  0
  9 10  1  0
 10 11  1  0
 11 12  2  0
 11 13  1  0
 13 14  1  0
 14 15  1  0
 15 16  1  0
 16 17  1  0
 17 18  1  0
 18 19  1  0
  9 20  1  0
 20 21  2  0
 20 22  1  0
 22 23  1  0
 23 24  2  0
 24 25  1  0
 25 26  1  0
 26 27  2  0
 27 28  1  0
 28 29  2  0
 29 30  1  0
 30 31  2  0
 25 32  2  0
 32 33  1  0
 18 13  1  0
 33 23  1  0
 31 26  1  0
M  END
>  <molecule_chembl_id>  (815) 
CHEMBL217651

>  <canonical_smiles>  (815) 
CC(=O)CCCCCC(NC(=O)C1CCCCN1C)C(=O)Nc1nc(-c2ccccc2)cs1

>  <pchembl_value_mean>  (815) 
6.77

>  <document_chembl_id>  (815) 
CHEMBL1137275

$$$$

     RDKit          2D

 41 45  0  0  0  0  0  0  0  0999 V2000
   -4.3786   -5.1199    0.0000 C   0  0  0  0  0  0  0  0  0  0  0  0
   -2.9520   -4.6564    0.0000 C   0  0  0  0  0  0  0  0  0  0  0  0
   -2.6401   -3.1891    0.0000 C   0  0  0  0  0  0  0  0  0  0  0  0
   -1.2135   -2.7256    0.0000 C   0  0  0  0  0  0  0  0  0  0  0  0
   -0.0000   -3.6073    0.0000 N   0  0  0  0  0  0  0  0  0  0  0  0
    1.2135   -2.7256    0.0000 N   0  0  0  0  0  0  0  0  0  0  0  0
    2.6401   -3.1891    0.0000 C   0  0  0  0  0  0  0  0  0  0  0  0
    0.7500   -1.2990    0.0000 C   0  0  0  0  0  0  0  0  0  0  0  0
    1.5000    0.0000    0.0000 C   0  0  0  0  0  0  0  0  0  0  0  0
    3.0000    0.0000    0.0000 O   0  0  0  0  0  0  0  0  0  0  0  0
    0.7500    1.2990    0.0000 N   0  0  0  0  0  0  0  0  0  0  0  0
   -0.7500    1.2990    0.0000 C   0  0  0  0  0  0  0  0  0  0  0  0
   -1.5000    2.5981    0.0000 C   0  0  0  0  0  0  0  0  0  0  0  0
   -0.7500    3.8971    0.0000 C   0  0  0  0  0  0  0  0  0  0  0  0
   -1.5000    5.1962    0.0000 C   0  0  0  0  0  0  0  0  0  0  0  0
   -0.7500    6.4952    0.0000 N   0  0  0  0  0  0  0  0  0  0  0  0
    0.7500    6.4952    0.0000 C   0  0  0  0  0  0  0  0  0  0  0  0
   -1.5000    7.7942    0.0000 C   0  0  0  0  0  0  0  0  0  0  0  0
   -0.7500    9.0933    0.0000 C   0  0  0  0  0  0  0  0  0  0  0  0
   -1.5000   10.3923    0.0000 C   0  0  0  0  0  0  0  0  0  0  0  0
   -3.0000   10.3923    0.0000 N   0  0  0  0  0  0  0  0  0  0  0  0
   -3.7500   11.6913    0.0000 C   0  0  0  0  0  0  0  0  0  0  0  0
   -3.0000   12.9904    0.0000 N   0  0  0  0  0  0  0  0  0  0  0  0
   -3.7500   14.2894    0.0000 C   0  0  0  0  0  0  0  0  0  0  0  0
   -5.2500   14.2894    0.0000 C   0  0  0  0  0  0  0  0  0  0  0  0
   -6.0000   15.5885    0.0000 C   0  0  0  0  0  0  0  0  0  0  0  0
   -7.5000   15.5885    0.0000 O   0  0  0  0  0  0  0  0  0  0  0  0
   -5.2500   16.8875    0.0000 N   0  0  0  0  0  0  0  0  0  0  0  0
   -6.0000   18.1865    0.0000 O   0  0  0  0  0  0  0  0  0  0  0  0
   -6.0000   12.9904    0.0000 C   0  0  0  0  0  0  0  0  0  0  0  0
   -5.2500   11.6913    0.0000 N   0  0  0  0  0  0  0  0  0  0  0  0
   -3.7500    9.0933    0.0000 C   0  0  0  0  0  0  0  0  0  0  0  0
   -3.0000    7.7942    0.0000 C   0  0  0  0  0  0  0  0  0  0  0  0
   -3.0000    5.1962    0.0000 C   0  0  0  0  0  0  0  0  0  0  0  0
   -3.7500    3.8971    0.0000 C   0  0  0  0  0  0  0  0  0  0  0  0
   -3.0000    2.5981    0.0000 C   0  0  0  0  0  0  0  0  0  0  0  0
   -3.7500    1.2990    0.0000 O   0  0  0  0  0  0  0  0  0  0  0  0
   -5.2500    1.2990    0.0000 C   0  0  0  0  0  0  0  0  0  0  0  0
   -6.0000    0.0000    0.0000 C   0  0  0  0  0  0  0  0  0  0  0  0
   -1.5000    0.0000    0.0000 N   0  0  0  0  0  0  0  0  0  0  0  0
   -0.7500   -1.2990    0.0000 C   0  0  0  0  0  0  0  0  0  0  0  0
  1  2  1  0
  2  3  1  0
  3  4  1  0
  4  5  2  0
  5  6  1  0
  6  7  1  0
  6  8  1  0
  8  9  1  0
  9 10  2  0
  9 11  1  0
 11 12  1  0
 12 13  1  0
 13 14  2  0
 14 15  1  0
 15 16  1  0
 16 17  1  0
 16 18  1  0
 18 19  1  0
 19 20  1  0
 20 21  1  0
 21 22  1  0
 22 23  2  0
 23 24  1  0
 24 25  2  0
 25 26  1  0
 26 27  2  0
 26 28  1  0
 28 29  1  0
 25 30  1  0
 30 31  2  0
 21 32  1  0
 32 33  1  0
 15 34  2  0
 34 35  1  0
 35 36  2  0
 36 37  1  0
 37 38  1  0
 38 39  1  0
 12 40  2  0
 40 41  1  0
 41  4  1  0
 41  8  2  0
 36 13  1  0
 33 18  1  0
 31 22  1  0
M  END
>  <molecule_chembl_id>  (816) 
CHEMBL3979179

>  <canonical_smiles>  (816) 
CCCc1nn(C)c2c(=O)[nH]c(-c3cc(N(C)C4CCN(c5ncc(C(=O)NO)cn5)CC4)ccc3OCC)nc12

>  <pchembl_value_mean>  (816) 
6.78

>  <document_chembl_id>  (816) 
CHEMBL3860059

$$$$

     RDKit          2D

 23 23  0  0  0  0  0  0  0  0999 V2000
   12.7500   -3.8971    0.0000 O   0  0  0  0  0  0  0  0  0  0  0  0
   12.0000   -5.1962    0.0000 C   0  0  0  0  0  0  0  0  0  0  0  0
   10.5000   -5.1962    0.0000 C   0  0  0  0  0  0  0  0  0  0  0  0
    9.7500   -3.8971    0.0000 C   0  0  0  0  0  0  0  0  0  0  0  0
    8.2500   -3.8971    0.0000 C   0  0  0  0  0  0  0  0  0  0  0  0
    7.5000   -2.5981    0.0000 C   0  0  0  0  0  0  0  0  0  0  0  0
    6.0000   -2.5981    0.0000 C   0  0  0  0  0  0  0  0  0  0  0  0
    5.2500   -1.2990    0.0000 C   0  0  0  0  0  0  0  0  0  0  0  0
    3.7500   -1.2990    0.0000 C   0  0  0  0  0  0  0  0  0  0  0  0
    3.0000   -2.5981    0.0000 O   0  0  0  0  0  0  0  0  0  0  0  0
    3.0000    0.0000    0.0000 N   0  0  0  0  0  0  0  0  0  0  0  0
    1.5000    0.0000    0.0000 C   0  0  0  0  0  0  0  0  0  0  0  0
    0.7500   -1.2990    0.0000 C   0  0  0  0  0  0  0  0  0  0  0  0
   -0.7500   -1.2990    0.0000 C   0  0  0  0  0  0  0  0  0  0  0  0
   -1.5000    0.0000    0.0000 C   0  0  0  0  0  0  0  0  0  0  0  0
   -0.7500    1.2990    0.0000 C   0  0  0  0  0  0  0  0  0  0  0  0
   -1.5000    2.5981    0.0000 C   0  0  0  0  0  0  0  0  0  0  0  0
   -2.2500    3.8971    0.0000 F   0  0  0  0  0  0  0  0  0  0  0  0
   -0.2010    3.3481    0.0000 F   0  0  0  0  0  0  0  0  0  0  0  0
   -2.7990    1.8481    0.0000 F   0  0  0  0  0  0  0  0  0  0  0  0
    0.7500    1.2990    0.0000 C   0  0  0  0  0  0  0  0  0  0  0  0
   12.7500   -6.4952    0.0000 N   0  0  0  0  0  0  0  0  0  0  0  0
   14.2500   -6.4952    0.0000 O   0  0  0  0  0  0  0  0  0  0  0  0
  1  2  2  0
  2  3  1  0
  3  4  1  0
  4  5  1  0
  5  6  1  0
  6  7  1  0
  7  8  1  0
  8  9  1  0
  9 10  2  0
  9 11  1  0
 11 12  1  0
 12 13  2  0
 13 14  1  0
 14 15  2  0
 15 16  1  0
 16 17  1  0
 17 18  1  0
 17 19  1  0
 17 20  1  0
 16 21  2  0
  2 22  1  0
 22 23  1  0
 21 12  1  0
M  END
>  <molecule_chembl_id>  (817) 
CHEMBL1089495

>  <canonical_smiles>  (817) 
O=C(CCCCCCC(=O)Nc1cccc(C(F)(F)F)c1)NO

>  <pchembl_value_mean>  (817) 
6.78

>  <document_chembl_id>  (817) 
CHEMBL3098008

$$$$

     RDKit          2D

 25 26  0  0  0  0  0  0  0  0999 V2000
    5.0260    1.2990    0.0000 C   0  0  0  0  0  0  0  0  0  0  0  0
    3.5260    1.2990    0.0000 C   0  0  0  0  0  0  0  0  0  0  0  0
    2.7760    2.5981    0.0000 C   0  0  0  0  0  0  0  0  0  0  0  0
    2.7760    0.0000    0.0000 C   0  0  0  0  0  0  0  0  0  0  0  0
    1.2760    0.0000    0.0000 N   0  0  0  0  0  0  0  0  0  0  0  0
    0.3943    1.2135    0.0000 C   0  0  0  0  0  0  0  0  0  0  0  0
   -1.0323    0.7500    0.0000 N   0  0  0  0  0  0  0  0  0  0  0  0
   -1.0323   -0.7500    0.0000 C   0  0  0  0  0  0  0  0  0  0  0  0
   -2.1470   -1.7537    0.0000 C   0  0  0  0  0  0  0  0  0  0  0  0
   -3.5736   -1.2902    0.0000 N   0  0  0  0  0  0  0  0  0  0  0  0
   -4.6883   -2.2939    0.0000 C   0  0  0  0  0  0  0  0  0  0  0  0
   -6.1149   -1.8303    0.0000 C   0  0  0  0  0  0  0  0  0  0  0  0
   -7.2296   -2.8340    0.0000 C   0  0  0  0  0  0  0  0  0  0  0  0
   -8.6562   -2.3705    0.0000 C   0  0  0  0  0  0  0  0  0  0  0  0
   -9.7709   -3.3742    0.0000 C   0  0  0  0  0  0  0  0  0  0  0  0
  -11.1975   -2.9107    0.0000 C   0  0  0  0  0  0  0  0  0  0  0  0
  -12.3122   -3.9144    0.0000 C   0  0  0  0  0  0  0  0  0  0  0  0
  -12.0003   -5.3816    0.0000 O   0  0  0  0  0  0  0  0  0  0  0  0
  -13.7388   -3.4509    0.0000 N   0  0  0  0  0  0  0  0  0  0  0  0
  -14.8535   -4.4545    0.0000 O   0  0  0  0  0  0  0  0  0  0  0  0
   -1.8351   -3.2209    0.0000 N   0  0  0  0  0  0  0  0  0  0  0  0
   -0.4086   -3.6844    0.0000 C   0  0  0  0  0  0  0  0  0  0  0  0
   -0.0967   -5.1517    0.0000 Cl  0  0  0  0  0  0  0  0  0  0  0  0
    0.7062   -2.6807    0.0000 N   0  0  0  0  0  0  0  0  0  0  0  0
    0.3943   -1.2135    0.0000 C   0  0  0  0  0  0  0  0  0  0  0  0
  1  2  1  0
  2  3  1  0
  2  4  1  0
  4  5  1  0
  5  6  1  0
  6  7  2  0
  7  8  1  0
  8  9  2  0
  9 10  1  0
 10 11  1  0
 11 12  1  0
 12 13  1  0
 13 14  1  0
 14 15  1  0
 15 16  1  0
 16 17  1  0
 17 18  2  0
 17 19  1  0
 19 20  1  0
  9 21  1  0
 21 22  2  0
 22 23  1  0
 22 24  1  0
 24 25  2  0
 25  5  1  0
 25  8  1  0
M  END
>  <molecule_chembl_id>  (818) 
CHEMBL3763573

>  <canonical_smiles>  (818) 
CC(C)Cn1cnc2c(NCCCCCCC(=O)NO)nc(Cl)nc21

>  <pchembl_value_mean>  (818) 
6.78

>  <document_chembl_id>  (818) 
CHEMBL3763038

$$$$

     RDKit          2D

 40 43  0  0  0  0  0  0  0  0999 V2000
   -1.8373   -5.6601    0.0000 N   0  0  0  0  0  0  0  0  0  0  0  0
   -2.9520   -4.6564    0.0000 C   0  0  0  0  0  0  0  0  0  0  0  0
   -2.6401   -3.1891    0.0000 C   0  0  0  0  0  0  0  0  0  0  0  0
   -1.2135   -2.7256    0.0000 C   0  0  0  0  0  0  0  0  0  0  0  0
   -0.0000   -3.6073    0.0000 C   0  0  0  0  0  0  0  0  0  0  0  0
    1.2135   -2.7256    0.0000 N   0  0  0  0  0  0  0  0  0  0  0  0
    0.7500   -1.2990    0.0000 C   0  0  0  0  0  0  0  0  0  0  0  0
    1.5000    0.0000    0.0000 C   0  0  0  0  0  0  0  0  0  0  0  0
    0.7500    1.2990    0.0000 C   0  0  0  0  0  0  0  0  0  0  0  0
   -0.7500    1.2990    0.0000 C   0  0  0  0  0  0  0  0  0  0  0  0
   -1.5000    0.0000    0.0000 C   0  0  0  0  0  0  0  0  0  0  0  0
   -0.7500   -1.2990    0.0000 C   0  0  0  0  0  0  0  0  0  0  0  0
   -4.3786   -5.1199    0.0000 C   0  0  0  0  0  0  0  0  0  0  0  0
   -5.4933   -4.1162    0.0000 O   0  0  0  0  0  0  0  0  0  0  0  0
   -4.6904   -6.5871    0.0000 N   0  0  0  0  0  0  0  0  0  0  0  0
   -6.1170   -7.0506    0.0000 C   0  0  0  0  0  0  0  0  0  0  0  0
   -7.2317   -6.0469    0.0000 C   0  0  0  0  0  0  0  0  0  0  0  0
   -8.6583   -6.5105    0.0000 C   0  0  0  0  0  0  0  0  0  0  0  0
   -8.9702   -7.9777    0.0000 C   0  0  0  0  0  0  0  0  0  0  0  0
   -7.8555   -8.9814    0.0000 C   0  0  0  0  0  0  0  0  0  0  0  0
   -6.4289   -8.5179    0.0000 C   0  0  0  0  0  0  0  0  0  0  0  0
   -5.3142   -9.5216    0.0000 C   0  0  0  0  0  0  0  0  0  0  0  0
   -5.6260  -10.9888    0.0000 C   0  0  0  0  0  0  0  0  0  0  0  0
   -4.5113  -11.9925    0.0000 C   0  0  0  0  0  0  0  0  0  0  0  0
   -3.0847  -11.5290    0.0000 C   0  0  0  0  0  0  0  0  0  0  0  0
   -1.9700  -12.5326    0.0000 N   0  0  0  0  0  0  0  0  0  0  0  0
   -2.2819  -13.9999    0.0000 C   0  0  0  0  0  0  0  0  0  0  0  0
   -3.7085  -14.4634    0.0000 O   0  0  0  0  0  0  0  0  0  0  0  0
   -1.1672  -15.0036    0.0000 C   0  0  0  0  0  0  0  0  0  0  0  0
   -1.4790  -16.4708    0.0000 C   0  0  0  0  0  0  0  0  0  0  0  0
   -0.3643  -17.4745    0.0000 C   0  0  0  0  0  0  0  0  0  0  0  0
   -0.6762  -18.9417    0.0000 C   0  0  0  0  0  0  0  0  0  0  0  0
    0.4385  -19.9454    0.0000 C   0  0  0  0  0  0  0  0  0  0  0  0
    0.1267  -21.4126    0.0000 C   0  0  0  0  0  0  0  0  0  0  0  0
    1.2414  -22.4163    0.0000 C   0  0  0  0  0  0  0  0  0  0  0  0
    2.6680  -21.9528    0.0000 O   0  0  0  0  0  0  0  0  0  0  0  0
    0.9295  -23.8835    0.0000 N   0  0  0  0  0  0  0  0  0  0  0  0
    2.0442  -24.8872    0.0000 O   0  0  0  0  0  0  0  0  0  0  0  0
   -2.7729  -10.0617    0.0000 C   0  0  0  0  0  0  0  0  0  0  0  0
   -3.8876   -9.0580    0.0000 C   0  0  0  0  0  0  0  0  0  0  0  0
  1  2  1  0
  2  3  1  0
  3  4  1  0
  4  5  2  0
  5  6  1  0
  6  7  1  0
  7  8  2  0
  8  9  1  0
  9 10  2  0
 10 11  1  0
 11 12  2  0
  2 13  1  0
 13 14  2  0
 13 15  1  0
 15 16  1  0
 16 17  2  0
 17 18  1  0
 18 19  2  0
 19 20  1  0
 20 21  2  0
 21 22  1  0
 22 23  2  0
 23 24  1  0
 24 25  2  0
 25 26  1  0
 26 27  1  0
 27 28  2  0
 27 29  1  0
 29 30  1  0
 30 31  1  0
 31 32  1  0
 32 33  1  0
 33 34  1  0
 34 35  1  0
 35 36  2  0
 35 37  1  0
 37 38  1  0
 25 39  1  0
 39 40  2  0
 12  4  1  0
 21 16  1  0
 40 22  1  0
 12  7  1  0
M  END
>  <molecule_chembl_id>  (819) 
CHEMBL389688

>  <canonical_smiles>  (819) 
NC(Cc1c[nH]c2ccccc12)C(=O)Nc1ccccc1-c1ccc(NC(=O)CCCCCCC(=O)NO)cc1

>  <pchembl_value_mean>  (819) 
6.78

>  <document_chembl_id>  (819) 
CHEMBL1145385

$$$$

     RDKit          2D

 30 32  0  0  0  0  0  0  0  0999 V2000
   12.7500   -3.8971    0.0000 O   0  0  0  0  0  0  0  0  0  0  0  0
   12.0000   -5.1962    0.0000 C   0  0  0  0  0  0  0  0  0  0  0  0
   10.5000   -5.1962    0.0000 C   0  0  0  0  0  0  0  0  0  0  0  0
    9.7500   -3.8971    0.0000 C   0  0  0  0  0  0  0  0  0  0  0  0
    8.2500   -3.8971    0.0000 C   0  0  0  0  0  0  0  0  0  0  0  0
    7.5000   -2.5981    0.0000 C   0  0  0  0  0  0  0  0  0  0  0  0
    6.0000   -2.5981    0.0000 C   0  0  0  0  0  0  0  0  0  0  0  0
    5.2500   -1.2990    0.0000 C   0  0  0  0  0  0  0  0  0  0  0  0
    3.7500   -1.2990    0.0000 C   0  0  0  0  0  0  0  0  0  0  0  0
    3.0000   -2.5981    0.0000 O   0  0  0  0  0  0  0  0  0  0  0  0
    3.0000    0.0000    0.0000 N   0  0  0  0  0  0  0  0  0  0  0  0
    1.5000    0.0000    0.0000 C   0  0  0  0  0  0  0  0  0  0  0  0
    0.7500   -1.2990    0.0000 C   0  0  0  0  0  0  0  0  0  0  0  0
   -0.7500   -1.2990    0.0000 C   0  0  0  0  0  0  0  0  0  0  0  0
   -1.5000    0.0000    0.0000 C   0  0  0  0  0  0  0  0  0  0  0  0
   -0.7500    1.2990    0.0000 C   0  0  0  0  0  0  0  0  0  0  0  0
   -1.5000    2.5981    0.0000 C   0  0  0  0  0  0  0  0  0  0  0  0
   -2.9918    2.7549    0.0000 C   0  0  0  0  0  0  0  0  0  0  0  0
   -3.3037    4.2221    0.0000 N   0  0  0  0  0  0  0  0  0  0  0  0
   -2.0046    4.9721    0.0000 N   0  0  0  0  0  0  0  0  0  0  0  0
   -0.8899    3.9684    0.0000 N   0  0  0  0  0  0  0  0  0  0  0  0
    0.5773    4.2803    0.0000 C   0  0  0  0  0  0  0  0  0  0  0  0
    1.5810    3.1655    0.0000 C   0  0  0  0  0  0  0  0  0  0  0  0
    3.0482    3.4774    0.0000 C   0  0  0  0  0  0  0  0  0  0  0  0
    3.5118    4.9040    0.0000 C   0  0  0  0  0  0  0  0  0  0  0  0
    2.5081    6.0187    0.0000 C   0  0  0  0  0  0  0  0  0  0  0  0
    1.0409    5.7068    0.0000 C   0  0  0  0  0  0  0  0  0  0  0  0
    0.7500    1.2990    0.0000 C   0  0  0  0  0  0  0  0  0  0  0  0
   12.7500   -6.4952    0.0000 N   0  0  0  0  0  0  0  0  0  0  0  0
   14.2500   -6.4952    0.0000 O   0  0  0  0  0  0  0  0  0  0  0  0
  1  2  2  0
  2  3  1  0
  3  4  1  0
  4  5  1  0
  5  6  1  0
  6  7  1  0
  7  8  1  0
  8  9  1  0
  9 10  2  0
  9 11  1  0
 11 12  1  0
 12 13  2  0
 13 14  1  0
 14 15  2  0
 15 16  1  0
 16 17  1  0
 17 18  2  0
 18 19  1  0
 19 20  2  0
 20 21  1  0
 21 22  1  0
 22 23  2  0
 23 24  1  0
 24 25  2  0
 25 26  1  0
 26 27  2  0
 16 28  2  0
  2 29  1  0
 29 30  1  0
 28 12  1  0
 21 17  1  0
 27 22  1  0
M  END
>  <molecule_chembl_id>  (820) 
CHEMBL520056

>  <canonical_smiles>  (820) 
O=C(CCCCCCC(=O)Nc1cccc(-c2cnnn2-c2ccccc2)c1)NO

>  <pchembl_value_mean>  (820) 
6.78

>  <document_chembl_id>  (820) 
CHEMBL1150413

$$$$

     RDKit          2D

 33 35  0  0  0  0  0  0  0  0999 V2000
   12.7500   -3.8971    0.0000 O   0  0  0  0  0  0  0  0  0  0  0  0
   12.0000   -5.1962    0.0000 C   0  0  0  0  0  0  0  0  0  0  0  0
   10.5000   -5.1962    0.0000 C   0  0  0  0  0  0  0  0  0  0  0  0
    9.7500   -3.8971    0.0000 C   0  0  0  0  0  0  0  0  0  0  0  0
    8.2500   -3.8971    0.0000 C   0  0  0  0  0  0  0  0  0  0  0  0
    7.5000   -2.5981    0.0000 C   0  0  0  0  0  0  0  0  0  0  0  0
    6.0000   -2.5981    0.0000 C   0  0  0  0  0  0  0  0  0  0  0  0
    5.2500   -1.2990    0.0000 C   0  0  0  0  0  0  0  0  0  0  0  0
    3.7500   -1.2990    0.0000 N   0  0  0  0  0  0  0  0  0  0  0  0
    3.0000    0.0000    0.0000 C   0  0  0  0  0  0  0  0  0  0  0  0
    3.7500    1.2990    0.0000 O   0  0  0  0  0  0  0  0  0  0  0  0
    1.5000    0.0000    0.0000 C   0  0  0  0  0  0  0  0  0  0  0  0
    0.7500   -1.2990    0.0000 C   0  0  0  0  0  0  0  0  0  0  0  0
   -0.7500   -1.2990    0.0000 N   0  0  0  0  0  0  0  0  0  0  0  0
   -1.5000    0.0000    0.0000 C   0  0  0  0  0  0  0  0  0  0  0  0
   -3.0000    0.0000    0.0000 N   0  0  0  0  0  0  0  0  0  0  0  0
   -3.7500    1.2990    0.0000 C   0  0  0  0  0  0  0  0  0  0  0  0
   -3.0000    2.5981    0.0000 C   0  0  0  0  0  0  0  0  0  0  0  0
   -3.7500    3.8971    0.0000 C   0  0  0  0  0  0  0  0  0  0  0  0
   -5.2500    3.8971    0.0000 C   0  0  0  0  0  0  0  0  0  0  0  0
   -6.0000    2.5981    0.0000 C   0  0  0  0  0  0  0  0  0  0  0  0
   -5.2500    1.2990    0.0000 C   0  0  0  0  0  0  0  0  0  0  0  0
   -3.7500   -1.2990    0.0000 C   0  0  0  0  0  0  0  0  0  0  0  0
   -5.2500   -1.2990    0.0000 C   0  0  0  0  0  0  0  0  0  0  0  0
   -6.0000   -2.5981    0.0000 C   0  0  0  0  0  0  0  0  0  0  0  0
   -5.2500   -3.8971    0.0000 C   0  0  0  0  0  0  0  0  0  0  0  0
   -3.7500   -3.8971    0.0000 C   0  0  0  0  0  0  0  0  0  0  0  0
   -3.0000   -2.5981    0.0000 C   0  0  0  0  0  0  0  0  0  0  0  0
   -1.5000   -2.5981    0.0000 Cl  0  0  0  0  0  0  0  0  0  0  0  0
   -0.7500    1.2990    0.0000 N   0  0  0  0  0  0  0  0  0  0  0  0
    0.7500    1.2990    0.0000 C   0  0  0  0  0  0  0  0  0  0  0  0
   12.7500   -6.4952    0.0000 N   0  0  0  0  0  0  0  0  0  0  0  0
   14.2500   -6.4952    0.0000 O   0  0  0  0  0  0  0  0  0  0  0  0
  1  2  2  0
  2  3  1  0
  3  4  1  0
  4  5  1  0
  5  6  1  0
  6  7  1  0
  7  8  1  0
  8  9  1  0
  9 10  1  0
 10 11  2  0
 10 12  1  0
 12 13  2  0
 13 14  1  0
 14 15  2  0
 15 16  1  0
 16 17  1  0
 17 18  2  0
 18 19  1  0
 19 20  2  0
 20 21  1  0
 21 22  2  0
 16 23  1  0
 23 24  2  0
 24 25  1  0
 25 26  2  0
 26 27  1  0
 27 28  2  0
 28 29  1  0
 15 30  1  0
 30 31  2  0
  2 32  1  0
 32 33  1  0
 31 12  1  0
 22 17  1  0
 28 23  1  0
M  END
>  <molecule_chembl_id>  (821) 
CHEMBL3693786

>  <canonical_smiles>  (821) 
O=C(CCCCCCNC(=O)c1cnc(N(c2ccccc2)c2ccccc2Cl)nc1)NO

>  <pchembl_value_mean>  (821) 
6.783333

>  <document_chembl_id>  (821) 
CHEMBL4373747

$$$$

     RDKit          2D

 35 37  0  0  0  0  0  0  0  0999 V2000
    3.0000    0.0000    0.0000 C   0  0  0  0  0  0  0  0  0  0  0  0
    1.5000    0.0000    0.0000 C   0  0  0  0  0  0  0  0  0  0  0  0
    0.7500   -1.2990    0.0000 C   0  0  0  0  0  0  0  0  0  0  0  0
   -0.7500   -1.2990    0.0000 C   0  0  0  0  0  0  0  0  0  0  0  0
   -1.5000    0.0000    0.0000 C   0  0  0  0  0  0  0  0  0  0  0  0
   -3.0000    0.0000    0.0000 C   0  0  0  0  0  0  0  0  0  0  0  0
   -3.8817   -1.2135    0.0000 C   0  0  0  0  0  0  0  0  0  0  0  0
   -5.3083   -0.7500    0.0000 C   0  0  0  0  0  0  0  0  0  0  0  0
   -6.5218   -1.6317    0.0000 C   0  0  0  0  0  0  0  0  0  0  0  0
   -6.3650   -3.1235    0.0000 O   0  0  0  0  0  0  0  0  0  0  0  0
   -7.8921   -1.0216    0.0000 N   0  0  0  0  0  0  0  0  0  0  0  0
   -9.1056   -1.9033    0.0000 C   0  0  0  0  0  0  0  0  0  0  0  0
  -10.4760   -1.2931    0.0000 C   0  0  0  0  0  0  0  0  0  0  0  0
  -11.6895   -2.1748    0.0000 C   0  0  0  0  0  0  0  0  0  0  0  0
  -13.0598   -1.5647    0.0000 C   0  0  0  0  0  0  0  0  0  0  0  0
  -14.2733   -2.4464    0.0000 C   0  0  0  0  0  0  0  0  0  0  0  0
  -15.6436   -1.8363    0.0000 C   0  0  0  0  0  0  0  0  0  0  0  0
  -16.8572   -2.7180    0.0000 C   0  0  0  0  0  0  0  0  0  0  0  0
  -16.7004   -4.2098    0.0000 O   0  0  0  0  0  0  0  0  0  0  0  0
  -18.2275   -2.1079    0.0000 N   0  0  0  0  0  0  0  0  0  0  0  0
  -19.4410   -2.9895    0.0000 O   0  0  0  0  0  0  0  0  0  0  0  0
   -5.3083    0.7500    0.0000 N   0  0  0  0  0  0  0  0  0  0  0  0
   -3.8817    1.2135    0.0000 N   0  0  0  0  0  0  0  0  0  0  0  0
   -3.4182    2.6401    0.0000 C   0  0  0  0  0  0  0  0  0  0  0  0
   -1.9509    2.9520    0.0000 C   0  0  0  0  0  0  0  0  0  0  0  0
   -1.4874    4.3786    0.0000 C   0  0  0  0  0  0  0  0  0  0  0  0
   -2.4911    5.4933    0.0000 C   0  0  0  0  0  0  0  0  0  0  0  0
   -2.0276    6.9199    0.0000 S   0  0  0  0  0  0  0  0  0  0  0  0
   -1.5641    8.3464    0.0000 C   0  0  0  0  0  0  0  0  0  0  0  0
   -3.4542    7.3834    0.0000 O   0  0  0  0  0  0  0  0  0  0  0  0
   -0.6010    6.4563    0.0000 O   0  0  0  0  0  0  0  0  0  0  0  0
   -3.9583    5.1814    0.0000 C   0  0  0  0  0  0  0  0  0  0  0  0
   -4.4218    3.7548    0.0000 C   0  0  0  0  0  0  0  0  0  0  0  0
   -0.7500    1.2990    0.0000 C   0  0  0  0  0  0  0  0  0  0  0  0
    0.7500    1.2990    0.0000 C   0  0  0  0  0  0  0  0  0  0  0  0
  1  2  1  0
  2  3  2  0
  3  4  1  0
  4  5  2  0
  5  6  1  0
  6  7  2  0
  7  8  1  0
  8  9  1  0
  9 10  2  0
  9 11  1  0
 11 12  1  0
 12 13  1  0
 13 14  1  0
 14 15  1  0
 15 16  1  0
 16 17  1  0
 17 18  1  0
 18 19  2  0
 18 20  1  0
 20 21  1  0
  8 22  2  0
 22 23  1  0
 23 24  1  0
 24 25  2  0
 25 26  1  0
 26 27  2  0
 27 28  1  0
 28 29  1  0
 28 30  2  0
 28 31  2  0
 27 32  1  0
 32 33  2  0
  5 34  1  0
 34 35  2  0
 35  2  1  0
 23  6  1  0
 33 24  1  0
M  END
>  <molecule_chembl_id>  (822) 
CHEMBL3884141

>  <canonical_smiles>  (822) 
Cc1ccc(-c2cc(C(=O)NCCCCCCC(=O)NO)nn2-c2ccc(S(C)(=O)=O)cc2)cc1

>  <pchembl_value_mean>  (822) 
6.79

>  <document_chembl_id>  (822) 
CHEMBL3875218

$$$$

     RDKit          2D

 32 34  0  0  0  0  0  0  0  0999 V2000
   -4.2606  -14.8714    0.0000 C   0  0  0  0  0  0  0  0  0  0  0  0
   -4.1038  -13.3796    0.0000 C   0  0  0  0  0  0  0  0  0  0  0  0
   -2.7335  -12.7695    0.0000 C   0  0  0  0  0  0  0  0  0  0  0  0
   -1.5200  -13.6512    0.0000 O   0  0  0  0  0  0  0  0  0  0  0  0
   -2.5767  -11.2778    0.0000 C   0  0  0  0  0  0  0  0  0  0  0  0
   -1.2064  -10.6676    0.0000 C   0  0  0  0  0  0  0  0  0  0  0  0
   -1.0496   -9.1759    0.0000 C   0  0  0  0  0  0  0  0  0  0  0  0
    0.3207   -8.5658    0.0000 C   0  0  0  0  0  0  0  0  0  0  0  0
    0.4775   -7.0740    0.0000 C   0  0  0  0  0  0  0  0  0  0  0  0
    1.8478   -6.4639    0.0000 C   0  0  0  0  0  0  0  0  0  0  0  0
    3.0613   -7.3456    0.0000 N   0  0  0  0  0  0  0  0  0  0  0  0
    2.9046   -8.8373    0.0000 C   0  0  0  0  0  0  0  0  0  0  0  0
    1.5342   -9.4474    0.0000 O   0  0  0  0  0  0  0  0  0  0  0  0
    4.1181   -9.7190    0.0000 C   0  0  0  0  0  0  0  0  0  0  0  0
    5.5447   -9.2555    0.0000 C   0  0  0  0  0  0  0  0  0  0  0  0
    6.4263  -10.4690    0.0000 C   0  0  0  0  0  0  0  0  0  0  0  0
    5.5447  -11.6825    0.0000 O   0  0  0  0  0  0  0  0  0  0  0  0
    4.1181  -11.2190    0.0000 N   0  0  0  0  0  0  0  0  0  0  0  0
    2.0046   -4.9721    0.0000 C   0  0  0  0  0  0  0  0  0  0  0  0
    0.8899   -3.9684    0.0000 N   0  0  0  0  0  0  0  0  0  0  0  0
    1.5000   -2.5981    0.0000 C   0  0  0  0  0  0  0  0  0  0  0  0
    0.7500   -1.2990    0.0000 C   0  0  0  0  0  0  0  0  0  0  0  0
    1.5000    0.0000    0.0000 C   0  0  0  0  0  0  0  0  0  0  0  0
    0.7500    1.2990    0.0000 C   0  0  0  0  0  0  0  0  0  0  0  0
   -0.7500    1.2990    0.0000 C   0  0  0  0  0  0  0  0  0  0  0  0
   -1.5000    2.5981    0.0000 F   0  0  0  0  0  0  0  0  0  0  0  0
   -1.5000    0.0000    0.0000 C   0  0  0  0  0  0  0  0  0  0  0  0
   -0.7500   -1.2990    0.0000 C   0  0  0  0  0  0  0  0  0  0  0  0
    2.9918   -2.7549    0.0000 N   0  0  0  0  0  0  0  0  0  0  0  0
    3.3037   -4.2221    0.0000 C   0  0  0  0  0  0  0  0  0  0  0  0
    4.6740   -4.8322    0.0000 C   0  0  0  0  0  0  0  0  0  0  0  0
    6.0443   -5.4423    0.0000 N   0  0  0  0  0  0  0  0  0  0  0  0
  1  2  1  0
  2  3  1  0
  3  4  2  0
  3  5  1  0
  5  6  1  0
  6  7  1  0
  7  8  1  0
  8  9  1  0
  9 10  1  0
 10 11  1  0
 11 12  1  0
 12 13  2  0
 12 14  1  0
 14 15  1  0
 15 16  2  0
 16 17  1  0
 17 18  1  0
 10 19  1  0
 19 20  1  0
 20 21  1  0
 21 22  1  0
 22 23  2  0
 23 24  1  0
 24 25  2  0
 25 26  1  0
 25 27  1  0
 27 28  2  0
 21 29  2  0
 29 30  1  0
 30 31  1  0
 31 32  3  0
 18 14  2  0
 30 19  2  0
 28 22  1  0
M  END
>  <molecule_chembl_id>  (823) 
CHEMBL4739902

>  <canonical_smiles>  (823) 
CCC(=O)CCCCCC(NC(=O)c1ccon1)c1[nH]c(-c2ccc(F)cc2)nc1C#N

>  <pchembl_value_mean>  (823) 
6.79

>  <document_chembl_id>  (823) 
CHEMBL4665726

$$$$

     RDKit          2D

 18 19  0  0  0  0  0  0  0  0999 V2000
    3.7500    1.2990    0.0000 O   0  0  0  0  0  0  0  0  0  0  0  0
    3.0000    0.0000    0.0000 C   0  0  0  0  0  0  0  0  0  0  0  0
    3.7500   -1.2990    0.0000 N   0  0  0  0  0  0  0  0  0  0  0  0
    5.2500   -1.2990    0.0000 O   0  0  0  0  0  0  0  0  0  0  0  0
    1.5000    0.0000    0.0000 C   0  0  0  0  0  0  0  0  0  0  0  0
    0.7500   -1.2990    0.0000 C   0  0  0  0  0  0  0  0  0  0  0  0
   -0.7500   -1.2990    0.0000 N   0  0  0  0  0  0  0  0  0  0  0  0
   -1.5000    0.0000    0.0000 C   0  0  0  0  0  0  0  0  0  0  0  0
   -3.0000    0.0000    0.0000 N   0  0  0  0  0  0  0  0  0  0  0  0
   -3.7500    1.2990    0.0000 C   0  0  0  0  0  0  0  0  0  0  0  0
   -3.0000    2.5981    0.0000 C   0  0  0  0  0  0  0  0  0  0  0  0
   -3.7500    3.8971    0.0000 C   0  0  0  0  0  0  0  0  0  0  0  0
   -5.2500    3.8971    0.0000 C   0  0  0  0  0  0  0  0  0  0  0  0
   -6.0000    2.5981    0.0000 C   0  0  0  0  0  0  0  0  0  0  0  0
   -7.5000    2.5981    0.0000 Cl  0  0  0  0  0  0  0  0  0  0  0  0
   -5.2500    1.2990    0.0000 C   0  0  0  0  0  0  0  0  0  0  0  0
   -0.7500    1.2990    0.0000 N   0  0  0  0  0  0  0  0  0  0  0  0
    0.7500    1.2990    0.0000 C   0  0  0  0  0  0  0  0  0  0  0  0
  1  2  2  0
  2  3  1  0
  3  4  1  0
  2  5  1  0
  5  6  2  0
  6  7  1  0
  7  8  2  0
  8  9  1  0
  9 10  1  0
 10 11  2  0
 11 12  1  0
 12 13  2  0
 13 14  1  0
 14 15  1  0
 14 16  2  0
  8 17  1  0
 17 18  2  0
 18  5  1  0
 16 10  1  0
M  END
>  <molecule_chembl_id>  (824) 
CHEMBL3652237

>  <canonical_smiles>  (824) 
O=C(NO)c1cnc(Nc2cccc(Cl)c2)nc1

>  <pchembl_value_mean>  (824) 
6.79

>  <document_chembl_id>  (824) 
CHEMBL3639071

$$$$

     RDKit          2D

 32 35  0  0  0  0  0  0  0  0999 V2000
    3.7500   -1.2990    0.0000 C   0  0  0  0  0  0  0  0  0  0  0  0
    3.0000    0.0000    0.0000 O   0  0  0  0  0  0  0  0  0  0  0  0
    1.5000    0.0000    0.0000 C   0  0  0  0  0  0  0  0  0  0  0  0
    0.7500   -1.2990    0.0000 C   0  0  0  0  0  0  0  0  0  0  0  0
   -0.7500   -1.2990    0.0000 C   0  0  0  0  0  0  0  0  0  0  0  0
   -1.5000    0.0000    0.0000 C   0  0  0  0  0  0  0  0  0  0  0  0
   -3.0000    0.0000    0.0000 C   0  0  0  0  0  0  0  0  0  0  0  0
   -3.8817   -1.2135    0.0000 C   0  0  0  0  0  0  0  0  0  0  0  0
   -5.3083   -0.7500    0.0000 C   0  0  0  0  0  0  0  0  0  0  0  0
   -6.5218   -1.6317    0.0000 C   0  0  0  0  0  0  0  0  0  0  0  0
   -6.5218   -3.1317    0.0000 C   0  0  0  0  0  0  0  0  0  0  0  0
   -7.9484   -3.5952    0.0000 C   0  0  0  0  0  0  0  0  0  0  0  0
   -8.8301   -2.3817    0.0000 O   0  0  0  0  0  0  0  0  0  0  0  0
   -7.9484   -1.1682    0.0000 C   0  0  0  0  0  0  0  0  0  0  0  0
   -5.3083    0.7500    0.0000 C   0  0  0  0  0  0  0  0  0  0  0  0
   -6.5218    1.6317    0.0000 C   0  0  0  0  0  0  0  0  0  0  0  0
   -7.8921    1.0216    0.0000 O   0  0  0  0  0  0  0  0  0  0  0  0
   -6.3650    3.1235    0.0000 N   0  0  0  0  0  0  0  0  0  0  0  0
   -7.5785    4.0051    0.0000 C   0  0  0  0  0  0  0  0  0  0  0  0
   -7.4217    5.4969    0.0000 C   0  0  0  0  0  0  0  0  0  0  0  0
   -6.0514    6.1070    0.0000 C   0  0  0  0  0  0  0  0  0  0  0  0
   -5.8946    7.5988    0.0000 C   0  0  0  0  0  0  0  0  0  0  0  0
   -7.1081    8.4805    0.0000 C   0  0  0  0  0  0  0  0  0  0  0  0
   -6.9514    9.9723    0.0000 C   0  0  0  0  0  0  0  0  0  0  0  0
   -8.1649   10.8539    0.0000 O   0  0  0  0  0  0  0  0  0  0  0  0
   -5.5810   10.5824    0.0000 N   0  0  0  0  0  0  0  0  0  0  0  0
   -5.4242   12.0742    0.0000 O   0  0  0  0  0  0  0  0  0  0  0  0
   -8.4785    7.8704    0.0000 C   0  0  0  0  0  0  0  0  0  0  0  0
   -8.6353    6.3786    0.0000 C   0  0  0  0  0  0  0  0  0  0  0  0
   -3.8817    1.2135    0.0000 N   0  0  0  0  0  0  0  0  0  0  0  0
   -0.7500    1.2990    0.0000 C   0  0  0  0  0  0  0  0  0  0  0  0
    0.7500    1.2990    0.0000 C   0  0  0  0  0  0  0  0  0  0  0  0
  1  2  1  0
  2  3  1  0
  3  4  2  0
  4  5  1  0
  5  6  2  0
  6  7  1  0
  7  8  2  0
  8  9  1  0
  9 10  1  0
 10 11  1  0
 11 12  2  0
 12 13  1  0
 13 14  1  0
  9 15  2  0
 15 16  1  0
 16 17  2  0
 16 18  1  0
 18 19  1  0
 19 20  1  0
 20 21  2  0
 21 22  1  0
 22 23  2  0
 23 24  1  0
 24 25  2  0
 24 26  1  0
 26 27  1  0
 23 28  1  0
 28 29  2  0
 15 30  1  0
  6 31  1  0
 31 32  2  0
 32  3  1  0
 30  7  1  0
 14 10  2  0
 29 20  1  0
M  END
>  <molecule_chembl_id>  (825) 
CHEMBL4087897

>  <canonical_smiles>  (825) 
COc1ccc(-c2cc(-c3ccoc3)c(C(=O)NCc3ccc(C(=O)NO)cc3)[nH]2)cc1

>  <pchembl_value_mean>  (825) 
6.8

>  <document_chembl_id>  (825) 
CHEMBL4033665

$$$$

     RDKit          2D

 40 44  0  0  0  0  0  0  0  0999 V2000
    7.5880  -15.0961    0.0000 C   0  0  0  0  0  0  0  0  0  0  0  0
    6.4733  -14.0924    0.0000 O   0  0  0  0  0  0  0  0  0  0  0  0
    5.0467  -14.5559    0.0000 C   0  0  0  0  0  0  0  0  0  0  0  0
    4.7349  -16.0231    0.0000 C   0  0  0  0  0  0  0  0  0  0  0  0
    3.3083  -16.4866    0.0000 C   0  0  0  0  0  0  0  0  0  0  0  0
    2.1936  -15.4829    0.0000 C   0  0  0  0  0  0  0  0  0  0  0  0
    0.7018  -15.6397    0.0000 N   0  0  0  0  0  0  0  0  0  0  0  0
    0.0917  -14.2694    0.0000 C   0  0  0  0  0  0  0  0  0  0  0  0
   -1.3755  -13.9576    0.0000 C   0  0  0  0  0  0  0  0  0  0  0  0
    1.2064  -13.2657    0.0000 C   0  0  0  0  0  0  0  0  0  0  0  0
    1.0496  -11.7739    0.0000 C   0  0  0  0  0  0  0  0  0  0  0  0
   -0.3207  -11.1638    0.0000 C   0  0  0  0  0  0  0  0  0  0  0  0
   -1.5342  -12.0455    0.0000 O   0  0  0  0  0  0  0  0  0  0  0  0
   -0.4775   -9.6721    0.0000 N   0  0  0  0  0  0  0  0  0  0  0  0
   -1.8478   -9.0619    0.0000 C   0  0  0  0  0  0  0  0  0  0  0  0
   -3.0613   -9.9436    0.0000 C   0  0  0  0  0  0  0  0  0  0  0  0
   -2.9046  -11.4354    0.0000 C   0  0  0  0  0  0  0  0  0  0  0  0
   -4.1181  -12.3171    0.0000 C   0  0  0  0  0  0  0  0  0  0  0  0
   -3.9613  -13.8089    0.0000 C   0  0  0  0  0  0  0  0  0  0  0  0
   -5.1748  -14.6905    0.0000 C   0  0  0  0  0  0  0  0  0  0  0  0
   -5.0180  -16.1823    0.0000 C   0  0  0  0  0  0  0  0  0  0  0  0
   -6.2315  -17.0640    0.0000 N   0  0  0  0  0  0  0  0  0  0  0  0
   -3.6477  -16.7924    0.0000 O   0  0  0  0  0  0  0  0  0  0  0  0
   -2.0046   -7.5702    0.0000 C   0  0  0  0  0  0  0  0  0  0  0  0
   -3.3037   -6.8202    0.0000 N   0  0  0  0  0  0  0  0  0  0  0  0
   -2.9918   -5.3529    0.0000 C   0  0  0  0  0  0  0  0  0  0  0  0
   -1.5000   -5.1962    0.0000 C   0  0  0  0  0  0  0  0  0  0  0  0
   -0.7500   -3.8971    0.0000 C   0  0  0  0  0  0  0  0  0  0  0  0
    0.7500   -3.8971    0.0000 C   0  0  0  0  0  0  0  0  0  0  0  0
    1.5000   -2.5981    0.0000 C   0  0  0  0  0  0  0  0  0  0  0  0
    0.7500   -1.2990    0.0000 C   0  0  0  0  0  0  0  0  0  0  0  0
    1.5000    0.0000    0.0000 C   0  0  0  0  0  0  0  0  0  0  0  0
    0.7500    1.2990    0.0000 C   0  0  0  0  0  0  0  0  0  0  0  0
   -0.7500    1.2990    0.0000 C   0  0  0  0  0  0  0  0  0  0  0  0
   -1.5000    0.0000    0.0000 C   0  0  0  0  0  0  0  0  0  0  0  0
   -0.7500   -1.2990    0.0000 C   0  0  0  0  0  0  0  0  0  0  0  0
   -1.5000   -2.5981    0.0000 C   0  0  0  0  0  0  0  0  0  0  0  0
   -0.8899   -6.5665    0.0000 N   0  0  0  0  0  0  0  0  0  0  0  0
    2.5054  -14.0157    0.0000 C   0  0  0  0  0  0  0  0  0  0  0  0
    3.9320  -13.5522    0.0000 C   0  0  0  0  0  0  0  0  0  0  0  0
  1  2  1  0
  2  3  1  0
  3  4  2  0
  4  5  1  0
  5  6  2  0
  6  7  1  0
  7  8  1  0
  8  9  1  0
  8 10  2  0
 10 11  1  0
 11 12  1  0
 12 13  2  0
 12 14  1  0
 14 15  1  0
 15 16  1  0
 16 17  1  0
 17 18  1  0
 18 19  1  0
 19 20  1  0
 20 21  1  0
 21 22  1  0
 21 23  2  0
 15 24  1  0
 24 25  2  0
 25 26  1  0
 26 27  2  0
 27 28  1  0
 28 29  2  0
 29 30  1  0
 30 31  2  0
 31 32  1  0
 32 33  2  0
 33 34  1  0
 34 35  2  0
 35 36  1  0
 36 37  2  0
 27 38  1  0
 10 39  1  0
 39 40  2  0
 40  3  1  0
 39  6  1  0
 38 24  1  0
 37 28  1  0
 36 31  1  0
M  END
>  <molecule_chembl_id>  (826) 
CHEMBL466215

>  <canonical_smiles>  (826) 
COc1ccc2[nH]c(C)c(CC(=O)NC(CCCCCC(N)=O)c3ncc(-c4ccc5ccccc5c4)[nH]3)c2c1

>  <pchembl_value_mean>  (826) 
6.8

>  <document_chembl_id>  (826) 
CHEMBL1136904

$$$$

     RDKit          2D

 32 35  0  0  0  0  0  0  0  0999 V2000
    3.7500   -1.2990    0.0000 C   0  0  0  0  0  0  0  0  0  0  0  0
    3.0000    0.0000    0.0000 O   0  0  0  0  0  0  0  0  0  0  0  0
    1.5000    0.0000    0.0000 C   0  0  0  0  0  0  0  0  0  0  0  0
    0.7500   -1.2990    0.0000 C   0  0  0  0  0  0  0  0  0  0  0  0
   -0.7500   -1.2990    0.0000 C   0  0  0  0  0  0  0  0  0  0  0  0
   -1.5000    0.0000    0.0000 C   0  0  0  0  0  0  0  0  0  0  0  0
   -3.0000    0.0000    0.0000 C   0  0  0  0  0  0  0  0  0  0  0  0
   -3.7500   -1.2990    0.0000 O   0  0  0  0  0  0  0  0  0  0  0  0
   -3.7500    1.2990    0.0000 N   0  0  0  0  0  0  0  0  0  0  0  0
   -5.2500    1.2990    0.0000 C   0  0  0  0  0  0  0  0  0  0  0  0
   -3.0000    2.5981    0.0000 C   0  0  0  0  0  0  0  0  0  0  0  0
   -3.7500    3.8971    0.0000 S   0  0  0  0  0  0  0  0  0  0  0  0
   -3.0000    5.1962    0.0000 C   0  0  0  0  0  0  0  0  0  0  0  0
   -3.7500    6.4952    0.0000 C   0  0  0  0  0  0  0  0  0  0  0  0
   -3.0000    7.7942    0.0000 C   0  0  0  0  0  0  0  0  0  0  0  0
   -3.7500    9.0933    0.0000 C   0  0  0  0  0  0  0  0  0  0  0  0
   -5.2500    9.0933    0.0000 C   0  0  0  0  0  0  0  0  0  0  0  0
   -6.0000   10.3923    0.0000 C   0  0  0  0  0  0  0  0  0  0  0  0
   -7.5000   10.3923    0.0000 O   0  0  0  0  0  0  0  0  0  0  0  0
   -5.2500   11.6913    0.0000 N   0  0  0  0  0  0  0  0  0  0  0  0
   -6.0000   12.9904    0.0000 C   0  0  0  0  0  0  0  0  0  0  0  0
   -5.2500   14.2894    0.0000 C   0  0  0  0  0  0  0  0  0  0  0  0
   -6.0000   15.5885    0.0000 C   0  0  0  0  0  0  0  0  0  0  0  0
   -7.5000   15.5885    0.0000 C   0  0  0  0  0  0  0  0  0  0  0  0
   -8.2500   14.2894    0.0000 C   0  0  0  0  0  0  0  0  0  0  0  0
   -7.5000   12.9904    0.0000 C   0  0  0  0  0  0  0  0  0  0  0  0
   -8.2500   11.6913    0.0000 N   0  0  0  0  0  0  0  0  0  0  0  0
   -6.0000    7.7942    0.0000 C   0  0  0  0  0  0  0  0  0  0  0  0
   -5.2500    6.4952    0.0000 C   0  0  0  0  0  0  0  0  0  0  0  0
   -1.5000    2.5981    0.0000 N   0  0  0  0  0  0  0  0  0  0  0  0
   -0.7500    1.2990    0.0000 C   0  0  0  0  0  0  0  0  0  0  0  0
    0.7500    1.2990    0.0000 C   0  0  0  0  0  0  0  0  0  0  0  0
  1  2  1  0
  2  3  1  0
  3  4  2  0
  4  5  1  0
  5  6  2  0
  6  7  1  0
  7  8  2  0
  7  9  1  0
  9 10  1  0
  9 11  1  0
 11 12  1  0
 12 13  1  0
 13 14  1  0
 14 15  2  0
 15 16  1  0
 16 17  2  0
 17 18  1  0
 18 19  2  0
 18 20  1  0
 20 21  1  0
 21 22  2  0
 22 23  1  0
 23 24  2  0
 24 25  1  0
 25 26  2  0
 26 27  1  0
 17 28  1  0
 28 29  2  0
 11 30  2  0
 30 31  1  0
 31 32  2  0
 32  3  1  0
 31  6  1  0
 29 14  1  0
 26 21  1  0
M  END
>  <molecule_chembl_id>  (827) 
CHEMBL4474354

>  <canonical_smiles>  (827) 
COc1ccc2c(=O)n(C)c(SCc3ccc(C(=O)Nc4ccccc4N)cc3)nc2c1

>  <pchembl_value_mean>  (827) 
6.8

>  <document_chembl_id>  (827) 
CHEMBL4393680

$$$$

     RDKit          2D

 33 35  0  0  0  0  0  0  0  0999 V2000
    6.0000    0.0000    0.0000 O   0  0  0  0  0  0  0  0  0  0  0  0
    5.2500   -1.2990    0.0000 C   0  0  0  0  0  0  0  0  0  0  0  0
    3.7500   -1.2990    0.0000 C   0  0  0  0  0  0  0  0  0  0  0  0
    3.0000    0.0000    0.0000 C   0  0  0  0  0  0  0  0  0  0  0  0
    1.5000    0.0000    0.0000 C   0  0  0  0  0  0  0  0  0  0  0  0
    0.7500   -1.2990    0.0000 C   0  0  0  0  0  0  0  0  0  0  0  0
   -0.7500   -1.2990    0.0000 C   0  0  0  0  0  0  0  0  0  0  0  0
   -1.5000    0.0000    0.0000 C   0  0  0  0  0  0  0  0  0  0  0  0
   -3.0000    0.0000    0.0000 C   0  0  0  0  0  0  0  0  0  0  0  0
   -3.7500   -1.2990    0.0000 O   0  0  0  0  0  0  0  0  0  0  0  0
   -3.7500    1.2990    0.0000 N   0  0  0  0  0  0  0  0  0  0  0  0
   -5.2500    1.2990    0.0000 C   0  0  0  0  0  0  0  0  0  0  0  0
   -6.0000    2.5981    0.0000 C   0  0  0  0  0  0  0  0  0  0  0  0
   -7.5000    2.5981    0.0000 O   0  0  0  0  0  0  0  0  0  0  0  0
   -8.2500    3.8971    0.0000 C   0  0  0  0  0  0  0  0  0  0  0  0
   -9.7418    4.0539    0.0000 N   0  0  0  0  0  0  0  0  0  0  0  0
  -10.0537    5.5211    0.0000 O   0  0  0  0  0  0  0  0  0  0  0  0
   -8.7546    6.2711    0.0000 N   0  0  0  0  0  4  0  0  0  0  0  0
   -8.5978    7.7629    0.0000 O   0  0  0  0  0  1  0  0  0  0  0  0
   -7.6399    5.2674    0.0000 C   0  0  0  0  0  0  0  0  0  0  0  0
   -6.1727    5.5793    0.0000 S   0  0  0  0  0  0  0  0  0  0  0  0
   -5.8608    4.1121    0.0000 O   0  0  0  0  0  0  0  0  0  0  0  0
   -6.4845    7.0465    0.0000 O   0  0  0  0  0  0  0  0  0  0  0  0
   -4.7055    5.8912    0.0000 C   0  0  0  0  0  0  0  0  0  0  0  0
   -3.7018    4.7765    0.0000 C   0  0  0  0  0  0  0  0  0  0  0  0
   -2.2345    5.0883    0.0000 C   0  0  0  0  0  0  0  0  0  0  0  0
   -1.7710    6.5149    0.0000 C   0  0  0  0  0  0  0  0  0  0  0  0
   -2.7747    7.6296    0.0000 C   0  0  0  0  0  0  0  0  0  0  0  0
   -4.2419    7.3178    0.0000 C   0  0  0  0  0  0  0  0  0  0  0  0
   -0.7500    1.2990    0.0000 C   0  0  0  0  0  0  0  0  0  0  0  0
    0.7500    1.2990    0.0000 C   0  0  0  0  0  0  0  0  0  0  0  0
    6.0000   -2.5981    0.0000 N   0  0  0  0  0  0  0  0  0  0  0  0
    7.5000   -2.5981    0.0000 O   0  0  0  0  0  0  0  0  0  0  0  0
  1  2  2  0
  2  3  1  0
  3  4  2  3
  4  5  1  0
  5  6  2  0
  6  7  1  0
  7  8  2  0
  8  9  1  0
  9 10  2  0
  9 11  1  0
 11 12  1  0
 12 13  1  0
 13 14  1  0
 14 15  1  0
 15 16  2  0
 16 17  1  0
 17 18  1  0
 18 19  1  0
 18 20  2  0
 20 21  1  0
 21 22  2  0
 21 23  2  0
 21 24  1  0
 24 25  2  0
 25 26  1  0
 26 27  2  0
 27 28  1  0
 28 29  2  0
  8 30  1  0
 30 31  2  0
  2 32  1  0
 32 33  1  0
 31  5  1  0
 20 15  1  0
 29 24  1  0
M  CHG  2  18   1  19  -1
M  END
>  <molecule_chembl_id>  (828) 
CHEMBL4519499

>  <canonical_smiles>  (828) 
O=C(C=Cc1ccc(C(=O)NCCOc2no[n+]([O-])c2S(=O)(=O)c2ccccc2)cc1)NO

>  <pchembl_value_mean>  (828) 
6.8

>  <document_chembl_id>  (828) 
CHEMBL4422610

$$$$

     RDKit          2D

 37 41  0  0  0  0  0  0  0  0999 V2000
    3.0000    0.0000    0.0000 N   0  0  0  0  0  0  0  0  0  0  0  0
    1.5000    0.0000    0.0000 C   0  0  0  0  0  0  0  0  0  0  0  0
    0.7500   -1.2990    0.0000 C   0  0  0  0  0  0  0  0  0  0  0  0
   -0.7500   -1.2990    0.0000 C   0  0  0  0  0  0  0  0  0  0  0  0
   -1.5000    0.0000    0.0000 C   0  0  0  0  0  0  0  0  0  0  0  0
   -0.7500    1.2990    0.0000 C   0  0  0  0  0  0  0  0  0  0  0  0
    0.7500    1.2990    0.0000 C   0  0  0  0  0  0  0  0  0  0  0  0
    1.5000    2.5981    0.0000 N   0  0  0  0  0  0  0  0  0  0  0  0
    0.7500    3.8971    0.0000 C   0  0  0  0  0  0  0  0  0  0  0  0
   -0.7500    3.8971    0.0000 O   0  0  0  0  0  0  0  0  0  0  0  0
    1.5000    5.1962    0.0000 C   0  0  0  0  0  0  0  0  0  0  0  0
    3.0000    5.1962    0.0000 C   0  0  0  0  0  0  0  0  0  0  0  0
    3.7500    6.4952    0.0000 C   0  0  0  0  0  0  0  0  0  0  0  0
    3.0000    7.7942    0.0000 C   0  0  0  0  0  0  0  0  0  0  0  0
    3.7500    9.0933    0.0000 C   0  0  0  0  0  0  0  0  0  0  0  0
    5.2500    9.0933    0.0000 N   0  0  0  0  0  0  0  0  0  0  0  0
    6.0000   10.3923    0.0000 C   0  0  0  0  0  0  0  0  0  0  0  0
    5.2500   11.6913    0.0000 O   0  0  0  0  0  0  0  0  0  0  0  0
    7.5000   10.3923    0.0000 C   0  0  0  0  0  0  0  0  0  0  0  0
    8.3817   11.6058    0.0000 N   0  0  0  0  0  0  0  0  0  0  0  0
    9.8083   11.1423    0.0000 C   0  0  0  0  0  0  0  0  0  0  0  0
   11.0218   12.0240    0.0000 C   0  0  0  0  0  0  0  0  0  0  0  0
   11.0218   13.5240    0.0000 C   0  0  0  0  0  0  0  0  0  0  0  0
   12.4484   13.9875    0.0000 C   0  0  0  0  0  0  0  0  0  0  0  0
   13.3301   12.7740    0.0000 S   0  0  0  0  0  0  0  0  0  0  0  0
   12.4484   11.5605    0.0000 C   0  0  0  0  0  0  0  0  0  0  0  0
    9.8083    9.6423    0.0000 C   0  0  0  0  0  0  0  0  0  0  0  0
    8.3817    9.1788    0.0000 C   0  0  0  0  0  0  0  0  0  0  0  0
    7.9182    7.7522    0.0000 C   0  0  0  0  0  0  0  0  0  0  0  0
    6.4509    7.4403    0.0000 C   0  0  0  0  0  0  0  0  0  0  0  0
    5.9874    6.0137    0.0000 C   0  0  0  0  0  0  0  0  0  0  0  0
    6.9911    4.8990    0.0000 C   0  0  0  0  0  0  0  0  0  0  0  0
    6.5276    3.4724    0.0000 O   0  0  0  0  0  0  0  0  0  0  0  0
    8.4583    5.2109    0.0000 C   0  0  0  0  0  0  0  0  0  0  0  0
    8.9218    6.6375    0.0000 C   0  0  0  0  0  0  0  0  0  0  0  0
    1.5000    7.7942    0.0000 C   0  0  0  0  0  0  0  0  0  0  0  0
    0.7500    6.4952    0.0000 C   0  0  0  0  0  0  0  0  0  0  0  0
  1  2  1  0
  2  3  2  0
  3  4  1  0
  4  5  2  0
  5  6  1  0
  6  7  2  0
  7  8  1  0
  8  9  1  0
  9 10  2  0
  9 11  1  0
 11 12  2  0
 12 13  1  0
 13 14  2  0
 14 15  1  0
 15 16  1  0
 16 17  1  0
 17 18  2  0
 17 19  1  0
 19 20  1  0
 20 21  1  0
 21 22  1  0
 22 23  1  0
 23 24  2  0
 24 25  1  0
 25 26  1  0
 21 27  2  0
 27 28  1  0
 28 29  1  0
 29 30  2  0
 30 31  1  0
 31 32  2  0
 32 33  1  0
 32 34  1  0
 34 35  2  0
 14 36  1  0
 36 37  2  0
  7  2  1  0
 37 11  1  0
 28 19  2  0
 35 29  1  0
 26 22  2  0
M  END
>  <molecule_chembl_id>  (829) 
CHEMBL3670674

>  <canonical_smiles>  (829) 
Nc1ccccc1NC(=O)c1ccc(CNC(=O)c2[nH]c(-c3ccsc3)cc2-c2ccc(O)cc2)cc1

>  <pchembl_value_mean>  (829) 
6.8

>  <document_chembl_id>  (829) 
CHEMBL3638813

$$$$

     RDKit          2D

 21 23  0  0  0  0  0  0  0  0999 V2000
    3.7500    1.2990    0.0000 O   0  0  0  0  0  0  0  0  0  0  0  0
    3.0000    0.0000    0.0000 C   0  0  0  0  0  0  0  0  0  0  0  0
    3.7500   -1.2990    0.0000 N   0  0  0  0  0  0  0  0  0  0  0  0
    5.2500   -1.2990    0.0000 O   0  0  0  0  0  0  0  0  0  0  0  0
    1.5000    0.0000    0.0000 C   0  0  0  0  0  0  0  0  0  0  0  0
    0.7500   -1.2990    0.0000 C   0  0  0  0  0  0  0  0  0  0  0  0
   -0.7500   -1.2990    0.0000 N   0  0  0  0  0  0  0  0  0  0  0  0
   -1.5000    0.0000    0.0000 C   0  0  0  0  0  0  0  0  0  0  0  0
   -3.0000    0.0000    0.0000 N   0  0  0  0  0  0  0  0  0  0  0  0
   -3.7500    1.2990    0.0000 C   0  0  0  0  0  0  0  0  0  0  0  0
   -5.0490    0.5490    0.0000 C   0  0  0  0  0  0  0  0  0  0  0  0
   -6.3481    1.2990    0.0000 C   0  0  0  0  0  0  0  0  0  0  0  0
   -7.6471    0.5490    0.0000 C   0  0  0  0  0  0  0  0  0  0  0  0
   -7.6471   -0.9510    0.0000 C   0  0  0  0  0  0  0  0  0  0  0  0
   -6.3481   -1.7010    0.0000 C   0  0  0  0  0  0  0  0  0  0  0  0
   -5.0490   -0.9510    0.0000 C   0  0  0  0  0  0  0  0  0  0  0  0
   -5.0490    0.5490    0.0000 C   0  0  0  0  0  0  0  0  0  0  0  0
   -5.7990    1.8481    0.0000 C   0  0  0  0  0  0  0  0  0  0  0  0
   -4.5000    2.5981    0.0000 C   0  0  0  0  0  0  0  0  0  0  0  0
   -0.7500    1.2990    0.0000 N   0  0  0  0  0  0  0  0  0  0  0  0
    0.7500    1.2990    0.0000 C   0  0  0  0  0  0  0  0  0  0  0  0
  1  2  2  0
  2  3  1  0
  3  4  1  0
  2  5  1  0
  5  6  2  0
  6  7  1  0
  7  8  2  0
  8  9  1  0
  9 10  1  0
 10 11  1  0
 11 12  2  0
 12 13  1  0
 13 14  2  0
 14 15  1  0
 15 16  2  0
 10 17  1  0
 17 18  1  0
 18 19  1  0
  8 20  1  0
 20 21  2  0
 21  5  1  0
 19 10  1  0
 16 11  1  0
M  END
>  <molecule_chembl_id>  (830) 
CHEMBL3655999

>  <canonical_smiles>  (830) 
O=C(NO)c1cnc(NC2(c3ccccc3)CCC2)nc1

>  <pchembl_value_mean>  (830) 
6.8

>  <document_chembl_id>  (830) 
CHEMBL3639071

$$$$

     RDKit          2D

 31 34  0  0  0  0  0  0  0  0999 V2000
   -0.5864  -10.4561    0.0000 C   0  0  0  0  0  0  0  0  0  0  0  0
    0.6272   -9.5744    0.0000 C   0  0  0  0  0  0  0  0  0  0  0  0
    0.4704   -8.0826    0.0000 C   0  0  0  0  0  0  0  0  0  0  0  0
    1.6839   -7.2010    0.0000 C   0  0  0  0  0  0  0  0  0  0  0  0
    1.5271   -5.7092    0.0000 C   0  0  0  0  0  0  0  0  0  0  0  0
    0.1568   -5.0991    0.0000 N   0  0  0  0  0  0  0  0  0  0  0  0
   -0.0000   -3.6073    0.0000 C   0  0  0  0  0  0  0  0  0  0  0  0
   -1.2135   -2.7256    0.0000 S   0  0  0  0  0  0  0  0  0  0  0  0
   -0.7500   -1.2990    0.0000 C   0  0  0  0  0  0  0  0  0  0  0  0
    0.7500   -1.2990    0.0000 C   0  0  0  0  0  0  0  0  0  0  0  0
    1.2135   -2.7256    0.0000 C   0  0  0  0  0  0  0  0  0  0  0  0
    2.5838   -3.3357    0.0000 C   0  0  0  0  0  0  0  0  0  0  0  0
    3.7974   -2.4540    0.0000 O   0  0  0  0  0  0  0  0  0  0  0  0
    2.7406   -4.8275    0.0000 N   0  0  0  0  0  0  0  0  0  0  0  0
    1.5000    0.0000    0.0000 C   0  0  0  0  0  0  0  0  0  0  0  0
    0.7500    1.2990    0.0000 C   0  0  0  0  0  0  0  0  0  0  0  0
   -0.7500    1.2990    0.0000 N   0  0  0  0  0  0  0  0  0  0  0  0
   -1.5000    2.5981    0.0000 C   0  0  0  0  0  0  0  0  0  0  0  0
   -1.5000    0.0000    0.0000 C   0  0  0  0  0  0  0  0  0  0  0  0
    3.0542   -7.8111    0.0000 C   0  0  0  0  0  0  0  0  0  0  0  0
    3.2110   -9.3029    0.0000 C   0  0  0  0  0  0  0  0  0  0  0  0
    4.5813   -9.9130    0.0000 C   0  0  0  0  0  0  0  0  0  0  0  0
    1.9975  -10.1845    0.0000 C   0  0  0  0  0  0  0  0  0  0  0  0
    2.1543  -11.6763    0.0000 O   0  0  0  0  0  0  0  0  0  0  0  0
    0.9408  -12.5580    0.0000 C   0  0  0  0  0  0  0  0  0  0  0  0
    1.0975  -14.0498    0.0000 C   0  0  0  0  0  0  0  0  0  0  0  0
   -0.1160  -14.9315    0.0000 C   0  0  0  0  0  0  0  0  0  0  0  0
    0.0408  -16.4232    0.0000 C   0  0  0  0  0  0  0  0  0  0  0  0
    1.4111  -17.0333    0.0000 O   0  0  0  0  0  0  0  0  0  0  0  0
   -1.1727  -17.3049    0.0000 N   0  0  0  0  0  0  0  0  0  0  0  0
   -1.0159  -18.7967    0.0000 O   0  0  0  0  0  0  0  0  0  0  0  0
  1  2  1  0
  2  3  2  0
  3  4  1  0
  4  5  1  0
  5  6  2  0
  6  7  1  0
  7  8  1  0
  8  9  1  0
  9 10  2  0
 10 11  1  0
 11 12  1  0
 12 13  2  0
 12 14  1  0
 10 15  1  0
 15 16  1  0
 16 17  1  0
 17 18  1  0
 17 19  1  0
  4 20  2  0
 20 21  1  0
 21 22  1  0
 21 23  2  0
 23 24  1  0
 24 25  1  0
 25 26  1  0
 26 27  1  0
 27 28  1  0
 28 29  2  0
 28 30  1  0
 30 31  1  0
 23  2  1  0
 14  5  1  0
 11  7  2  0
 19  9  1  0
M  END
>  <molecule_chembl_id>  (831) 
CHEMBL4551888

>  <canonical_smiles>  (831) 
Cc1cc(-c2nc3sc4c(c3c(=O)[nH]2)CCN(C)C4)cc(C)c1OCCCC(=O)NO

>  <pchembl_value_mean>  (831) 
6.8

>  <document_chembl_id>  (831) 
CHEMBL4342471

$$$$

     RDKit          2D

 39 43  0  0  0  0  0  0  0  0999 V2000
    3.7500   -1.2990    0.0000 C   0  0  0  0  0  0  0  0  0  0  0  0
    3.0000    0.0000    0.0000 O   0  0  0  0  0  0  0  0  0  0  0  0
    1.5000    0.0000    0.0000 C   0  0  0  0  0  0  0  0  0  0  0  0
    0.7500   -1.2990    0.0000 C   0  0  0  0  0  0  0  0  0  0  0  0
   -0.7500   -1.2990    0.0000 C   0  0  0  0  0  0  0  0  0  0  0  0
   -1.5000   -2.5981    0.0000 C   0  0  0  0  0  0  0  0  0  0  0  0
   -0.7500   -3.8971    0.0000 N   0  0  0  0  0  0  0  0  0  0  0  0
   -1.5000   -5.1962    0.0000 C   0  0  0  0  0  0  0  0  0  0  0  0
   -0.7500   -6.4952    0.0000 C   0  0  0  0  0  0  0  0  0  0  0  0
   -1.5000   -7.7942    0.0000 C   0  0  0  0  0  0  0  0  0  0  0  0
   -0.7500   -9.0933    0.0000 C   0  0  0  0  0  0  0  0  0  0  0  0
    0.7500   -9.0933    0.0000 C   0  0  0  0  0  0  0  0  0  0  0  0
    1.5000  -10.3923    0.0000 C   0  0  0  0  0  0  0  0  0  0  0  0
    3.0000  -10.3923    0.0000 O   0  0  0  0  0  0  0  0  0  0  0  0
    0.7500  -11.6913    0.0000 N   0  0  0  0  0  0  0  0  0  0  0  0
    1.5000  -12.9904    0.0000 O   0  0  0  0  0  0  0  0  0  0  0  0
    1.5000   -7.7942    0.0000 C   0  0  0  0  0  0  0  0  0  0  0  0
    0.7500   -6.4952    0.0000 C   0  0  0  0  0  0  0  0  0  0  0  0
   -3.0000   -2.5981    0.0000 C   0  0  0  0  0  0  0  0  0  0  0  0
   -3.7500   -1.2990    0.0000 C   0  0  0  0  0  0  0  0  0  0  0  0
   -5.2500   -1.2990    0.0000 C   0  0  0  0  0  0  0  0  0  0  0  0
   -6.1317   -2.5126    0.0000 C   0  0  0  0  0  0  0  0  0  0  0  0
   -7.5583   -2.0490    0.0000 C   0  0  0  0  0  0  0  0  0  0  0  0
   -7.5583   -0.5490    0.0000 C   0  0  0  0  0  0  0  0  0  0  0  0
   -8.7718    0.3326    0.0000 C   0  0  0  0  0  0  0  0  0  0  0  0
   -6.1317   -0.0855    0.0000 O   0  0  0  0  0  0  0  0  0  0  0  0
   -3.0000    0.0000    0.0000 N   0  0  0  0  0  0  0  0  0  0  0  0
   -1.5000    0.0000    0.0000 C   0  0  0  0  0  0  0  0  0  0  0  0
   -0.7500    1.2990    0.0000 C   0  0  0  0  0  0  0  0  0  0  0  0
    0.7500    1.2990    0.0000 C   0  0  0  0  0  0  0  0  0  0  0  0
    1.5000    2.5981    0.0000 O   0  0  0  0  0  0  0  0  0  0  0  0
    0.7500    3.8971    0.0000 C   0  0  0  0  0  0  0  0  0  0  0  0
    1.5000    5.1962    0.0000 C   0  0  0  0  0  0  0  0  0  0  0  0
    0.7500    6.4952    0.0000 C   0  0  0  0  0  0  0  0  0  0  0  0
    1.5000    7.7942    0.0000 N   0  0  0  0  0  0  0  0  0  0  0  0
    0.8899    9.1645    0.0000 C   0  0  0  0  0  0  0  0  0  0  0  0
    2.0046   10.1682    0.0000 C   0  0  0  0  0  0  0  0  0  0  0  0
    3.3037    9.4182    0.0000 C   0  0  0  0  0  0  0  0  0  0  0  0
    2.9918    7.9510    0.0000 C   0  0  0  0  0  0  0  0  0  0  0  0
  1  2  1  0
  2  3  1  0
  3  4  2  0
  4  5  1  0
  5  6  2  0
  6  7  1  0
  7  8  1  0
  8  9  1  0
  9 10  1  0
 10 11  1  0
 11 12  1  0
 12 13  1  0
 13 14  2  0
 13 15  1  0
 15 16  1  0
 12 17  1  0
 17 18  1  0
  6 19  1  0
 19 20  2  0
 20 21  1  0
 21 22  2  0
 22 23  1  0
 23 24  2  0
 24 25  1  0
 24 26  1  0
 20 27  1  0
 27 28  2  0
 28 29  1  0
 29 30  2  0
 30 31  1  0
 31 32  1  0
 32 33  1  0
 33 34  1  0
 34 35  1  0
 35 36  1  0
 36 37  1  0
 37 38  1  0
 38 39  1  0
 30  3  1  0
 39 35  1  0
 28  5  1  0
 18  9  1  0
 26 21  1  0
M  END
>  <molecule_chembl_id>  (832) 
CHEMBL4850606

>  <canonical_smiles>  (832) 
COc1cc2c(NCC3CCC(C(=O)NO)CC3)cc(-c3ccc(C)o3)nc2cc1OCCCN1CCCC1

>  <pchembl_value_mean>  (832) 
6.8

>  <document_chembl_id>  (832) 
CHEMBL4834403

$$$$

     RDKit          2D

 37 39  0  0  0  0  0  0  0  0999 V2000
   -0.7500   -3.8971    0.0000 N   0  0  0  0  0  0  0  0  0  0  0  0
   -1.5000   -5.1962    0.0000 C   0  0  0  0  0  0  0  0  0  0  0  0
   -3.0000   -5.1962    0.0000 C   0  0  0  0  0  0  0  0  0  0  0  0
   -3.7500   -3.8971    0.0000 C   0  0  0  0  0  0  0  0  0  0  0  0
   -5.2500   -3.8971    0.0000 C   0  0  0  0  0  0  0  0  0  0  0  0
   -6.0000   -2.5981    0.0000 C   0  0  0  0  0  0  0  0  0  0  0  0
   -5.2500   -1.2990    0.0000 C   0  0  0  0  0  0  0  0  0  0  0  0
   -3.7500   -1.2990    0.0000 C   0  0  0  0  0  0  0  0  0  0  0  0
   -3.0000   -2.5981    0.0000 C   0  0  0  0  0  0  0  0  0  0  0  0
   -0.7500   -6.4952    0.0000 C   0  0  0  0  0  0  0  0  0  0  0  0
   -1.5000   -7.7942    0.0000 O   0  0  0  0  0  0  0  0  0  0  0  0
    0.7500   -6.4952    0.0000 N   0  0  0  0  0  0  0  0  0  0  0  0
    1.5000   -7.7942    0.0000 C   0  0  0  0  0  0  0  0  0  0  0  0
    0.7500   -9.0933    0.0000 C   0  0  0  0  0  0  0  0  0  0  0  0
    1.5000  -10.3923    0.0000 C   0  0  0  0  0  0  0  0  0  0  0  0
    3.0000  -10.3923    0.0000 C   0  0  0  0  0  0  0  0  0  0  0  0
    3.7500   -9.0933    0.0000 C   0  0  0  0  0  0  0  0  0  0  0  0
    3.0000   -7.7942    0.0000 C   0  0  0  0  0  0  0  0  0  0  0  0
    3.7500   -6.4952    0.0000 C   0  0  0  0  0  0  0  0  0  0  0  0
    5.2500   -6.4952    0.0000 C   0  0  0  0  0  0  0  0  0  0  0  0
    6.0000   -5.1962    0.0000 C   0  0  0  0  0  0  0  0  0  0  0  0
    5.2500   -3.8971    0.0000 C   0  0  0  0  0  0  0  0  0  0  0  0
    6.0000   -2.5981    0.0000 N   0  0  0  0  0  0  0  0  0  0  0  0
    7.5000   -2.5981    0.0000 C   0  0  0  0  0  0  0  0  0  0  0  0
    8.2500   -3.8971    0.0000 O   0  0  0  0  0  0  0  0  0  0  0  0
    8.2500   -1.2990    0.0000 C   0  0  0  0  0  0  0  0  0  0  0  0
    9.7500   -1.2990    0.0000 C   0  0  0  0  0  0  0  0  0  0  0  0
   10.5000   -0.0000    0.0000 C   0  0  0  0  0  0  0  0  0  0  0  0
   12.0000   -0.0000    0.0000 C   0  0  0  0  0  0  0  0  0  0  0  0
   12.7500    1.2990    0.0000 C   0  0  0  0  0  0  0  0  0  0  0  0
   14.2500    1.2990    0.0000 C   0  0  0  0  0  0  0  0  0  0  0  0
   15.0000    2.5981    0.0000 C   0  0  0  0  0  0  0  0  0  0  0  0
   14.2500    3.8971    0.0000 O   0  0  0  0  0  0  0  0  0  0  0  0
   16.5000    2.5981    0.0000 N   0  0  0  0  0  0  0  0  0  0  0  0
   17.2500    3.8971    0.0000 O   0  0  0  0  0  0  0  0  0  0  0  0
    3.7500   -3.8971    0.0000 C   0  0  0  0  0  0  0  0  0  0  0  0
    3.0000   -5.1962    0.0000 C   0  0  0  0  0  0  0  0  0  0  0  0
  1  2  1  0
  2  3  1  0
  3  4  1  0
  4  5  2  0
  5  6  1  0
  6  7  2  0
  7  8  1  0
  8  9  2  0
  2 10  1  0
 10 11  2  0
 10 12  1  0
 12 13  1  0
 13 14  2  0
 14 15  1  0
 15 16  2  0
 16 17  1  0
 17 18  2  0
 18 19  1  0
 19 20  2  0
 20 21  1  0
 21 22  2  0
 22 23  1  0
 23 24  1  0
 24 25  2  0
 24 26  1  0
 26 27  1  0
 27 28  1  0
 28 29  1  0
 29 30  1  0
 30 31  1  0
 31 32  1  0
 32 33  2  0
 32 34  1  0
 34 35  1  0
 22 36  1  0
 36 37  2  0
  9  4  1  0
 18 13  1  0
 37 19  1  0
M  END
>  <molecule_chembl_id>  (833) 
CHEMBL389687

>  <canonical_smiles>  (833) 
NC(Cc1ccccc1)C(=O)Nc1ccccc1-c1ccc(NC(=O)CCCCCCC(=O)NO)cc1

>  <pchembl_value_mean>  (833) 
6.81

>  <document_chembl_id>  (833) 
CHEMBL1145385

$$$$

     RDKit          2D

 37 40  0  0  0  0  0  0  0  0999 V2000
   14.7990   -8.5442    0.0000 C   0  0  0  0  0  0  0  0  0  0  0  0
   13.2990   -8.5442    0.0000 C   0  0  0  0  0  0  0  0  0  0  0  0
   12.5490   -7.2452    0.0000 C   0  0  0  0  0  0  0  0  0  0  0  0
   13.2990   -5.9462    0.0000 O   0  0  0  0  0  0  0  0  0  0  0  0
   11.0490   -7.2452    0.0000 C   0  0  0  0  0  0  0  0  0  0  0  0
   10.2990   -5.9462    0.0000 C   0  0  0  0  0  0  0  0  0  0  0  0
    8.7990   -5.9462    0.0000 C   0  0  0  0  0  0  0  0  0  0  0  0
    8.0490   -4.6471    0.0000 C   0  0  0  0  0  0  0  0  0  0  0  0
    6.5490   -4.6471    0.0000 C   0  0  0  0  0  0  0  0  0  0  0  0
    5.7990   -3.3481    0.0000 C   0  0  0  0  0  0  0  0  0  0  0  0
    4.2990   -3.3481    0.0000 N   0  0  0  0  0  0  0  0  0  0  0  0
    3.5490   -2.0490    0.0000 C   0  0  0  0  0  0  0  0  0  0  0  0
    4.2990   -0.7500    0.0000 O   0  0  0  0  0  0  0  0  0  0  0  0
    2.0490   -2.0490    0.0000 C   0  0  0  0  0  0  0  0  0  0  0  0
    0.7500   -2.7990    0.0000 C   0  0  0  0  0  0  0  0  0  0  0  0
    0.7500   -1.2990    0.0000 C   0  0  0  0  0  0  0  0  0  0  0  0
    1.5000    0.0000    0.0000 C   0  0  0  0  0  0  0  0  0  0  0  0
    0.7500    1.2990    0.0000 C   0  0  0  0  0  0  0  0  0  0  0  0
   -0.7500    1.2990    0.0000 N   0  0  0  0  0  0  0  0  0  0  0  0
   -1.5000    2.5981    0.0000 C   0  0  0  0  0  0  0  0  0  0  0  0
   -1.5000    0.0000    0.0000 C   0  0  0  0  0  0  0  0  0  0  0  0
   -0.7500   -1.2990    0.0000 C   0  0  0  0  0  0  0  0  0  0  0  0
    6.5490   -2.0490    0.0000 C   0  0  0  0  0  0  0  0  0  0  0  0
    5.9389   -0.6787    0.0000 N   0  0  0  0  0  0  0  0  0  0  0  0
    7.0537    0.3250    0.0000 C   0  0  0  0  0  0  0  0  0  0  0  0
    6.8969    1.8168    0.0000 C   0  0  0  0  0  0  0  0  0  0  0  0
    8.1104    2.6984    0.0000 C   0  0  0  0  0  0  0  0  0  0  0  0
    7.9536    4.1902    0.0000 C   0  0  0  0  0  0  0  0  0  0  0  0
    6.5833    4.8003    0.0000 C   0  0  0  0  0  0  0  0  0  0  0  0
    6.4265    6.2921    0.0000 F   0  0  0  0  0  0  0  0  0  0  0  0
    5.3697    3.9186    0.0000 C   0  0  0  0  0  0  0  0  0  0  0  0
    5.5265    2.4269    0.0000 C   0  0  0  0  0  0  0  0  0  0  0  0
    4.3130    1.5452    0.0000 F   0  0  0  0  0  0  0  0  0  0  0  0
    8.3527   -0.4250    0.0000 N   0  0  0  0  0  0  0  0  0  0  0  0
    8.0408   -1.8922    0.0000 C   0  0  0  0  0  0  0  0  0  0  0  0
    9.0445   -3.0070    0.0000 C   0  0  0  0  0  0  0  0  0  0  0  0
   10.0482   -4.1217    0.0000 N   0  0  0  0  0  0  0  0  0  0  0  0
  1  2  1  0
  2  3  1  0
  3  4  2  0
  3  5  1  0
  5  6  1  0
  6  7  1  0
  7  8  1  0
  8  9  1  0
  9 10  1  0
 10 11  1  0
 11 12  1  0
 12 13  2  0
 12 14  1  0
 14 15  1  0
 15 16  1  0
 16 17  1  0
 17 18  1  0
 18 19  1  0
 19 20  1  0
 19 21  1  0
 21 22  1  0
 10 23  1  0
 23 24  1  0
 24 25  1  0
 25 26  1  0
 26 27  2  0
 27 28  1  0
 28 29  2  0
 29 30  1  0
 29 31  1  0
 31 32  2  0
 32 33  1  0
 25 34  2  0
 34 35  1  0
 35 36  1  0
 36 37  3  0
 16 14  1  0
 35 23  2  0
 22 16  1  0
 32 26  1  0
M  END
>  <molecule_chembl_id>  (834) 
CHEMBL4797194

>  <canonical_smiles>  (834) 
CCC(=O)CCCCCC(NC(=O)C1CC12CCN(C)CC2)c1[nH]c(-c2ccc(F)cc2F)nc1C#N

>  <pchembl_value_mean>  (834) 
6.81

>  <document_chembl_id>  (834) 
CHEMBL4665726

$$$$

     RDKit          2D

 24 25  0  0  0  0  0  0  0  0999 V2000
    3.5260    1.2990    0.0000 C   0  0  0  0  0  0  0  0  0  0  0  0
    2.7760    0.0000    0.0000 C   0  0  0  0  0  0  0  0  0  0  0  0
    3.5260   -1.2990    0.0000 C   0  0  0  0  0  0  0  0  0  0  0  0
    1.2760    0.0000    0.0000 N   0  0  0  0  0  0  0  0  0  0  0  0
    0.3943    1.2135    0.0000 C   0  0  0  0  0  0  0  0  0  0  0  0
   -1.0323    0.7500    0.0000 N   0  0  0  0  0  0  0  0  0  0  0  0
   -1.0323   -0.7500    0.0000 C   0  0  0  0  0  0  0  0  0  0  0  0
   -2.1470   -1.7537    0.0000 C   0  0  0  0  0  0  0  0  0  0  0  0
   -3.5736   -1.2902    0.0000 N   0  0  0  0  0  0  0  0  0  0  0  0
   -4.6883   -2.2939    0.0000 C   0  0  0  0  0  0  0  0  0  0  0  0
   -6.1149   -1.8303    0.0000 C   0  0  0  0  0  0  0  0  0  0  0  0
   -7.2296   -2.8340    0.0000 C   0  0  0  0  0  0  0  0  0  0  0  0
   -8.6562   -2.3705    0.0000 C   0  0  0  0  0  0  0  0  0  0  0  0
   -9.7709   -3.3742    0.0000 C   0  0  0  0  0  0  0  0  0  0  0  0
  -11.1975   -2.9107    0.0000 C   0  0  0  0  0  0  0  0  0  0  0  0
  -12.3122   -3.9144    0.0000 C   0  0  0  0  0  0  0  0  0  0  0  0
  -12.0003   -5.3816    0.0000 O   0  0  0  0  0  0  0  0  0  0  0  0
  -13.7388   -3.4509    0.0000 N   0  0  0  0  0  0  0  0  0  0  0  0
  -14.8535   -4.4545    0.0000 O   0  0  0  0  0  0  0  0  0  0  0  0
   -1.8351   -3.2209    0.0000 N   0  0  0  0  0  0  0  0  0  0  0  0
   -0.4086   -3.6844    0.0000 C   0  0  0  0  0  0  0  0  0  0  0  0
   -0.0967   -5.1517    0.0000 N   0  0  0  0  0  0  0  0  0  0  0  0
    0.7062   -2.6807    0.0000 N   0  0  0  0  0  0  0  0  0  0  0  0
    0.3943   -1.2135    0.0000 C   0  0  0  0  0  0  0  0  0  0  0  0
  1  2  1  0
  2  3  1  0
  2  4  1  0
  4  5  1  0
  5  6  2  0
  6  7  1  0
  7  8  2  0
  8  9  1  0
  9 10  1  0
 10 11  1  0
 11 12  1  0
 12 13  1  0
 13 14  1  0
 14 15  1  0
 15 16  1  0
 16 17  2  0
 16 18  1  0
 18 19  1  0
  8 20  1  0
 20 21  2  0
 21 22  1  0
 21 23  1  0
 23 24  2  0
 24  4  1  0
 24  7  1  0
M  END
>  <molecule_chembl_id>  (835) 
CHEMBL3764561

>  <canonical_smiles>  (835) 
CC(C)n1cnc2c(NCCCCCCC(=O)NO)nc(N)nc21

>  <pchembl_value_mean>  (835) 
6.81

>  <document_chembl_id>  (835) 
CHEMBL3763038

$$$$

     RDKit          2D

 27 30  0  0  0  0  0  0  0  0999 V2000
   -1.5000   -7.7942    0.0000 N   0  0  0  0  0  0  0  0  0  0  0  0
   -3.0000   -7.7942    0.0000 C   0  0  0  0  0  0  0  0  0  0  0  0
   -3.7500   -9.0933    0.0000 C   0  0  0  0  0  0  0  0  0  0  0  0
   -5.2500   -9.0933    0.0000 C   0  0  0  0  0  0  0  0  0  0  0  0
   -6.0000   -7.7942    0.0000 C   0  0  0  0  0  0  0  0  0  0  0  0
   -7.5000   -7.7942    0.0000 C   0  0  0  0  0  0  0  0  0  0  0  0
   -8.2500   -6.4952    0.0000 C   0  0  0  0  0  0  0  0  0  0  0  0
   -9.7500   -6.4952    0.0000 C   0  0  0  0  0  0  0  0  0  0  0  0
  -10.5000   -7.7942    0.0000 C   0  0  0  0  0  0  0  0  0  0  0  0
  -12.0000   -7.7942    0.0000 F   0  0  0  0  0  0  0  0  0  0  0  0
   -9.7500   -9.0933    0.0000 C   0  0  0  0  0  0  0  0  0  0  0  0
   -8.2500   -9.0933    0.0000 C   0  0  0  0  0  0  0  0  0  0  0  0
   -5.2500   -6.4952    0.0000 C   0  0  0  0  0  0  0  0  0  0  0  0
   -3.7500   -6.4952    0.0000 C   0  0  0  0  0  0  0  0  0  0  0  0
   -3.0000   -5.1962    0.0000 N   0  0  0  0  0  0  0  0  0  0  0  0
   -1.5000   -5.1962    0.0000 C   0  0  0  0  0  0  0  0  0  0  0  0
   -0.7500   -6.4952    0.0000 O   0  0  0  0  0  0  0  0  0  0  0  0
   -0.7500   -3.8971    0.0000 C   0  0  0  0  0  0  0  0  0  0  0  0
    0.7500   -3.8971    0.0000 C   0  0  0  0  0  0  0  0  0  0  0  0
    1.5000   -2.5981    0.0000 O   0  0  0  0  0  0  0  0  0  0  0  0
    0.7500   -1.2990    0.0000 C   0  0  0  0  0  0  0  0  0  0  0  0
    1.5000    0.0000    0.0000 C   0  0  0  0  0  0  0  0  0  0  0  0
    0.7500    1.2990    0.0000 C   0  0  0  0  0  0  0  0  0  0  0  0
   -0.7500    1.2990    0.0000 C   0  0  0  0  0  0  0  0  0  0  0  0
   -1.5000    0.0000    0.0000 C   0  0  0  0  0  0  0  0  0  0  0  0
   -0.7500   -1.2990    0.0000 C   0  0  0  0  0  0  0  0  0  0  0  0
   -1.5000   -2.5981    0.0000 C   0  0  0  0  0  0  0  0  0  0  0  0
  1  2  1  0
  2  3  2  0
  3  4  1  0
  4  5  2  0
  5  6  1  0
  6  7  2  0
  7  8  1  0
  8  9  2  0
  9 10  1  0
  9 11  1  0
 11 12  2  0
  5 13  1  0
 13 14  2  0
 14 15  1  0
 15 16  1  0
 16 17  2  0
 16 18  1  0
 18 19  1  0
 19 20  1  0
 20 21  1  0
 21 22  2  0
 22 23  1  0
 23 24  2  0
 24 25  1  0
 25 26  2  0
 26 27  1  0
 14  2  1  0
 27 18  1  0
 12  6  1  0
 26 21  1  0
M  END
>  <molecule_chembl_id>  (836) 
CHEMBL3827363

>  <canonical_smiles>  (836) 
Nc1ccc(-c2ccc(F)cc2)cc1NC(=O)C1COc2ccccc2C1

>  <pchembl_value_mean>  (836) 
6.81

>  <document_chembl_id>  (836) 
CHEMBL3826926

$$$$

     RDKit          2D

 32 33  0  0  0  0  0  0  0  0999 V2000
    7.2990   -1.8481    0.0000 C   0  0  0  0  0  0  0  0  0  0  0  0
    6.0000   -2.5981    0.0000 C   0  0  0  0  0  0  0  0  0  0  0  0
    4.7010   -3.3481    0.0000 C   0  0  0  0  0  0  0  0  0  0  0  0
    6.7500   -3.8971    0.0000 C   0  0  0  0  0  0  0  0  0  0  0  0
    5.2500   -1.2990    0.0000 O   0  0  0  0  0  0  0  0  0  0  0  0
    3.7500   -1.2990    0.0000 C   0  0  0  0  0  0  0  0  0  0  0  0
    3.0000   -2.5981    0.0000 O   0  0  0  0  0  0  0  0  0  0  0  0
    3.0000    0.0000    0.0000 N   0  0  0  0  0  0  0  0  0  0  0  0
    1.5000    0.0000    0.0000 C   0  0  0  0  0  0  0  0  0  0  0  0
    0.7500   -1.2990    0.0000 C   0  0  0  0  0  0  0  0  0  0  0  0
   -0.7500   -1.2990    0.0000 C   0  0  0  0  0  0  0  0  0  0  0  0
   -1.5000    0.0000    0.0000 C   0  0  0  0  0  0  0  0  0  0  0  0
   -3.0000    0.0000    0.0000 C   0  0  0  0  0  0  0  0  0  0  0  0
   -3.8817   -1.2135    0.0000 C   0  0  0  0  0  0  0  0  0  0  0  0
   -5.3083   -0.7500    0.0000 C   0  0  0  0  0  0  0  0  0  0  0  0
   -6.5218   -1.6317    0.0000 C   0  0  0  0  0  0  0  0  0  0  0  0
   -6.3650   -3.1235    0.0000 O   0  0  0  0  0  0  0  0  0  0  0  0
   -7.8921   -1.0216    0.0000 N   0  0  0  0  0  0  0  0  0  0  0  0
   -9.1056   -1.9033    0.0000 C   0  0  0  0  0  0  0  0  0  0  0  0
  -10.4760   -1.2931    0.0000 C   0  0  0  0  0  0  0  0  0  0  0  0
  -11.6895   -2.1748    0.0000 C   0  0  0  0  0  0  0  0  0  0  0  0
  -13.0598   -1.5647    0.0000 C   0  0  0  0  0  0  0  0  0  0  0  0
  -14.2733   -2.4464    0.0000 C   0  0  0  0  0  0  0  0  0  0  0  0
  -15.6436   -1.8363    0.0000 C   0  0  0  0  0  0  0  0  0  0  0  0
  -16.8572   -2.7180    0.0000 C   0  0  0  0  0  0  0  0  0  0  0  0
  -16.7004   -4.2098    0.0000 O   0  0  0  0  0  0  0  0  0  0  0  0
  -18.2275   -2.1079    0.0000 N   0  0  0  0  0  0  0  0  0  0  0  0
  -19.4410   -2.9895    0.0000 O   0  0  0  0  0  0  0  0  0  0  0  0
   -5.3083    0.7500    0.0000 N   0  0  0  0  0  0  0  0  0  0  0  0
   -3.8817    1.2135    0.0000 O   0  0  0  0  0  0  0  0  0  0  0  0
   -0.7500    1.2990    0.0000 C   0  0  0  0  0  0  0  0  0  0  0  0
    0.7500    1.2990    0.0000 C   0  0  0  0  0  0  0  0  0  0  0  0
  1  2  1  0
  2  3  1  0
  2  4  1  0
  2  5  1  0
  5  6  1  0
  6  7  2  0
  6  8  1  0
  8  9  1  0
  9 10  2  0
 10 11  1  0
 11 12  2  0
 12 13  1  0
 13 14  2  0
 14 15  1  0
 15 16  1  0
 16 17  2  0
 16 18  1  0
 18 19  1  0
 19 20  1  0
 20 21  1  0
 21 22  1  0
 22 23  1  0
 23 24  1  0
 24 25  1  0
 25 26  2  0
 25 27  1  0
 27 28  1  0
 15 29  2  0
 29 30  1  0
 12 31  1  0
 31 32  2  0
 32  9  1  0
 30 13  1  0
M  END
>  <molecule_chembl_id>  (837) 
CHEMBL511749

>  <canonical_smiles>  (837) 
CC(C)(C)OC(=O)Nc1ccc(-c2cc(C(=O)NCCCCCCC(=O)NO)no2)cc1

>  <pchembl_value_mean>  (837) 
6.815

>  <document_chembl_id>  (837) 
CHEMBL1155917

$$$$

     RDKit          2D

 33 36  0  0  0  0  0  0  0  0999 V2000
    3.0000    0.0000    0.0000 N   0  0  0  0  0  0  0  0  0  0  0  0
    1.5000    0.0000    0.0000 C   0  0  0  0  0  0  0  0  0  0  0  0
    0.7500   -1.2990    0.0000 C   0  0  0  0  0  0  0  0  0  0  0  0
   -0.7500   -1.2990    0.0000 C   0  0  0  0  0  0  0  0  0  0  0  0
   -1.5000    0.0000    0.0000 C   0  0  0  0  0  0  0  0  0  0  0  0
   -0.7500    1.2990    0.0000 C   0  0  0  0  0  0  0  0  0  0  0  0
    0.7500    1.2990    0.0000 C   0  0  0  0  0  0  0  0  0  0  0  0
    1.5000    2.5981    0.0000 N   0  0  0  0  0  0  0  0  0  0  0  0
    0.7500    3.8971    0.0000 C   0  0  0  0  0  0  0  0  0  0  0  0
   -0.7500    3.8971    0.0000 O   0  0  0  0  0  0  0  0  0  0  0  0
    1.5000    5.1962    0.0000 C   0  0  0  0  0  0  0  0  0  0  0  0
    3.0000    5.1962    0.0000 C   0  0  0  0  0  0  0  0  0  0  0  0
    3.7500    6.4952    0.0000 C   0  0  0  0  0  0  0  0  0  0  0  0
    3.0000    7.7942    0.0000 C   0  0  0  0  0  0  0  0  0  0  0  0
    3.7500    9.0933    0.0000 C   0  0  0  0  0  0  0  0  0  0  0  0
    5.2500    9.0933    0.0000 N   0  0  0  0  0  0  0  0  0  0  0  0
    6.0000   10.3923    0.0000 C   0  0  0  0  0  0  0  0  0  0  0  0
    7.5000   10.3923    0.0000 C   0  0  0  0  0  0  0  0  0  0  0  0
    8.3817   11.6058    0.0000 N   0  0  0  0  0  0  0  0  0  0  0  0
    9.8083   11.1423    0.0000 C   0  0  0  0  0  0  0  0  0  0  0  0
   11.0218   12.0240    0.0000 C   0  0  0  0  0  0  0  0  0  0  0  0
   12.3921   11.4139    0.0000 C   0  0  0  0  0  0  0  0  0  0  0  0
   13.6056   12.2956    0.0000 C   0  0  0  0  0  0  0  0  0  0  0  0
   13.4488   13.7873    0.0000 C   0  0  0  0  0  0  0  0  0  0  0  0
   14.6624   14.6690    0.0000 N   0  0  0  0  0  4  0  0  0  0  0  0
   14.5056   16.1608    0.0000 O   0  0  0  0  0  0  0  0  0  0  0  0
   16.0327   14.0589    0.0000 O   0  0  0  0  0  1  0  0  0  0  0  0
   12.0785   14.3974    0.0000 C   0  0  0  0  0  0  0  0  0  0  0  0
   10.8650   13.5158    0.0000 C   0  0  0  0  0  0  0  0  0  0  0  0
    9.8083    9.6423    0.0000 N   0  0  0  0  0  0  0  0  0  0  0  0
    8.3817    9.1788    0.0000 O   0  0  0  0  0  0  0  0  0  0  0  0
    1.5000    7.7942    0.0000 C   0  0  0  0  0  0  0  0  0  0  0  0
    0.7500    6.4952    0.0000 C   0  0  0  0  0  0  0  0  0  0  0  0
  1  2  1  0
  2  3  2  0
  3  4  1  0
  4  5  2  0
  5  6  1  0
  6  7  2  0
  7  8  1  0
  8  9  1  0
  9 10  2  0
  9 11  1  0
 11 12  2  0
 12 13  1  0
 13 14  2  0
 14 15  1  0
 15 16  1  0
 16 17  1  0
 17 18  1  0
 18 19  2  0
 19 20  1  0
 20 21  1  0
 21 22  2  0
 22 23  1  0
 23 24  2  0
 24 25  1  0
 25 26  2  0
 25 27  1  0
 24 28  1  0
 28 29  2  0
 20 30  2  0
 30 31  1  0
 14 32  1  0
 32 33  2  0
  7  2  1  0
 33 11  1  0
 31 18  1  0
 29 21  1  0
M  CHG  2  25   1  27  -1
M  END
>  <molecule_chembl_id>  (838) 
CHEMBL3421742

>  <canonical_smiles>  (838) 
Nc1ccccc1NC(=O)c1ccc(CNCc2nc(-c3ccc([N+](=O)[O-])cc3)no2)cc1

>  <pchembl_value_mean>  (838) 
6.82

>  <document_chembl_id>  (838) 
CHEMBL3421568

$$$$

     RDKit          2D

 30 33  0  0  0  0  0  0  0  0999 V2000
    3.0000    0.0000    0.0000 N   0  0  0  0  0  0  0  0  0  0  0  0
    1.5000    0.0000    0.0000 C   0  0  0  0  0  0  0  0  0  0  0  0
    0.7500   -1.2990    0.0000 C   0  0  0  0  0  0  0  0  0  0  0  0
   -0.7500   -1.2990    0.0000 C   0  0  0  0  0  0  0  0  0  0  0  0
   -1.5000    0.0000    0.0000 C   0  0  0  0  0  0  0  0  0  0  0  0
   -0.7500    1.2990    0.0000 C   0  0  0  0  0  0  0  0  0  0  0  0
    0.7500    1.2990    0.0000 C   0  0  0  0  0  0  0  0  0  0  0  0
    1.5000    2.5981    0.0000 N   0  0  0  0  0  0  0  0  0  0  0  0
    0.7500    3.8971    0.0000 C   0  0  0  0  0  0  0  0  0  0  0  0
   -0.7500    3.8971    0.0000 O   0  0  0  0  0  0  0  0  0  0  0  0
    1.5000    5.1962    0.0000 C   0  0  0  0  0  0  0  0  0  0  0  0
    3.0000    5.1962    0.0000 C   0  0  0  0  0  0  0  0  0  0  0  0
    3.7500    6.4952    0.0000 C   0  0  0  0  0  0  0  0  0  0  0  0
    3.0000    7.7942    0.0000 C   0  0  0  0  0  0  0  0  0  0  0  0
    3.7500    9.0933    0.0000 C   0  0  0  0  0  0  0  0  0  0  0  0
    5.2500    9.0933    0.0000 N   0  0  0  0  0  0  0  0  0  0  0  0
    6.0000   10.3923    0.0000 C   0  0  0  0  0  0  0  0  0  0  0  0
    5.3899   11.7626    0.0000 N   0  0  0  0  0  0  0  0  0  0  0  0
    6.5046   12.7663    0.0000 C   0  0  0  0  0  0  0  0  0  0  0  0
    6.3478   14.2581    0.0000 C   0  0  0  0  0  0  0  0  0  0  0  0
    7.5613   15.1398    0.0000 C   0  0  0  0  0  0  0  0  0  0  0  0
    7.4046   16.6316    0.0000 C   0  0  0  0  0  0  0  0  0  0  0  0
    6.0342   17.2417    0.0000 C   0  0  0  0  0  0  0  0  0  0  0  0
    5.8774   18.7335    0.0000 F   0  0  0  0  0  0  0  0  0  0  0  0
    4.8207   16.3600    0.0000 C   0  0  0  0  0  0  0  0  0  0  0  0
    4.9775   14.8682    0.0000 C   0  0  0  0  0  0  0  0  0  0  0  0
    7.8037   12.0163    0.0000 C   0  0  0  0  0  0  0  0  0  0  0  0
    7.4918   10.5491    0.0000 O   0  0  0  0  0  0  0  0  0  0  0  0
    1.5000    7.7942    0.0000 C   0  0  0  0  0  0  0  0  0  0  0  0
    0.7500    6.4952    0.0000 C   0  0  0  0  0  0  0  0  0  0  0  0
  1  2  1  0
  2  3  2  0
  3  4  1  0
  4  5  2  0
  5  6  1  0
  6  7  2  0
  7  8  1  0
  8  9  1  0
  9 10  2  0
  9 11  1  0
 11 12  2  0
 12 13  1  0
 13 14  2  0
 14 15  1  0
 15 16  1  0
 16 17  1  0
 17 18  2  0
 18 19  1  0
 19 20  1  0
 20 21  2  0
 21 22  1  0
 22 23  2  0
 23 24  1  0
 23 25  1  0
 25 26  2  0
 19 27  1  0
 27 28  1  0
 14 29  1  0
 29 30  2  0
  7  2  1  0
 30 11  1  0
 28 17  1  0
 26 20  1  0
M  END
>  <molecule_chembl_id>  (839) 
CHEMBL3605496

>  <canonical_smiles>  (839) 
Nc1ccccc1NC(=O)c1ccc(CNC2=NC(c3ccc(F)cc3)CO2)cc1

>  <pchembl_value_mean>  (839) 
6.82

>  <document_chembl_id>  (839) 
CHEMBL3603817

$$$$

     RDKit          2D

 29 31  0  0  0  0  0  0  0  0999 V2000
    3.0000    0.0000    0.0000 N   0  0  0  0  0  0  0  0  0  0  0  0
    1.5000    0.0000    0.0000 C   0  0  0  0  0  0  0  0  0  0  0  0
    0.7500   -1.2990    0.0000 C   0  0  0  0  0  0  0  0  0  0  0  0
   -0.7500   -1.2990    0.0000 C   0  0  0  0  0  0  0  0  0  0  0  0
   -1.5000   -2.5981    0.0000 F   0  0  0  0  0  0  0  0  0  0  0  0
   -1.5000    0.0000    0.0000 C   0  0  0  0  0  0  0  0  0  0  0  0
   -0.7500    1.2990    0.0000 C   0  0  0  0  0  0  0  0  0  0  0  0
    0.7500    1.2990    0.0000 C   0  0  0  0  0  0  0  0  0  0  0  0
    1.5000    2.5981    0.0000 N   0  0  0  0  0  0  0  0  0  0  0  0
    0.7500    3.8971    0.0000 C   0  0  0  0  0  0  0  0  0  0  0  0
   -0.7500    3.8971    0.0000 O   0  0  0  0  0  0  0  0  0  0  0  0
    1.5000    5.1962    0.0000 C   0  0  0  0  0  0  0  0  0  0  0  0
    3.0000    5.1962    0.0000 C   0  0  0  0  0  0  0  0  0  0  0  0
    3.7500    6.4952    0.0000 C   0  0  0  0  0  0  0  0  0  0  0  0
    3.0000    7.7942    0.0000 C   0  0  0  0  0  0  0  0  0  0  0  0
    3.7500    9.0933    0.0000 C   0  0  0  0  0  0  0  0  0  0  0  0
    5.2500    9.0933    0.0000 N   0  0  0  0  0  0  0  0  0  0  0  0
    6.0000   10.3923    0.0000 C   0  0  0  0  0  0  0  0  0  0  0  0
    5.2500   11.6913    0.0000 O   0  0  0  0  0  0  0  0  0  0  0  0
    7.5000   10.3923    0.0000 C   0  0  0  0  0  0  0  0  0  0  0  0
    8.2500   11.6913    0.0000 C   0  0  0  0  0  0  0  0  0  0  0  0
    9.7500   11.6913    0.0000 C   0  0  0  0  0  0  0  0  0  0  0  0
   10.5000   10.3923    0.0000 C   0  0  0  0  0  0  0  0  0  0  0  0
   12.0000   10.3923    0.0000 C   0  0  0  0  0  0  0  0  0  0  0  0
   12.7500   11.6913    0.0000 N   0  0  0  0  0  0  0  0  0  0  0  0
   12.0000   12.9904    0.0000 C   0  0  0  0  0  0  0  0  0  0  0  0
   10.5000   12.9904    0.0000 C   0  0  0  0  0  0  0  0  0  0  0  0
    1.5000    7.7942    0.0000 C   0  0  0  0  0  0  0  0  0  0  0  0
    0.7500    6.4952    0.0000 C   0  0  0  0  0  0  0  0  0  0  0  0
  1  2  1  0
  2  3  2  0
  3  4  1  0
  4  5  1  0
  4  6  2  0
  6  7  1  0
  7  8  2  0
  8  9  1  0
  9 10  1  0
 10 11  2  0
 10 12  1  0
 12 13  2  0
 13 14  1  0
 14 15  2  0
 15 16  1  0
 16 17  1  0
 17 18  1  0
 18 19  2  0
 18 20  1  0
 20 21  2  3
 21 22  1  0
 22 23  2  0
 23 24  1  0
 24 25  2  0
 25 26  1  0
 26 27  2  0
 15 28  1  0
 28 29  2  0
  8  2  1  0
 29 12  1  0
 27 22  1  0
M  END
>  <molecule_chembl_id>  (840) 
CHEMBL4437428

>  <canonical_smiles>  (840) 
Nc1cc(F)ccc1NC(=O)c1ccc(CNC(=O)C=Cc2ccncc2)cc1

>  <pchembl_value_mean>  (840) 
6.82

>  <document_chembl_id>  (840) 
CHEMBL4334541

$$$$

     RDKit          2D

 25 26  0  0  0  0  0  0  0  0999 V2000
    3.0000    0.0000    0.0000 N   0  0  0  0  0  0  0  0  0  0  0  0
    1.5000    0.0000    0.0000 C   0  0  0  0  0  0  0  0  0  0  0  0
    0.7500   -1.2990    0.0000 C   0  0  0  0  0  0  0  0  0  0  0  0
   -0.7500   -1.2990    0.0000 C   0  0  0  0  0  0  0  0  0  0  0  0
   -1.5000    0.0000    0.0000 C   0  0  0  0  0  0  0  0  0  0  0  0
   -3.0000    0.0000    0.0000 C   0  0  0  0  0  0  0  0  0  0  0  0
   -3.8817   -1.2135    0.0000 C   0  0  0  0  0  0  0  0  0  0  0  0
   -5.3083   -0.7500    0.0000 C   0  0  0  0  0  0  0  0  0  0  0  0
   -6.5218   -1.6317    0.0000 C   0  0  0  0  0  0  0  0  0  0  0  0
   -6.3650   -3.1235    0.0000 O   0  0  0  0  0  0  0  0  0  0  0  0
   -7.8921   -1.0216    0.0000 N   0  0  0  0  0  0  0  0  0  0  0  0
   -9.1056   -1.9033    0.0000 C   0  0  0  0  0  0  0  0  0  0  0  0
  -10.4760   -1.2931    0.0000 C   0  0  0  0  0  0  0  0  0  0  0  0
  -11.6895   -2.1748    0.0000 C   0  0  0  0  0  0  0  0  0  0  0  0
  -13.0598   -1.5647    0.0000 C   0  0  0  0  0  0  0  0  0  0  0  0
  -14.2733   -2.4464    0.0000 C   0  0  0  0  0  0  0  0  0  0  0  0
  -15.6436   -1.8363    0.0000 C   0  0  0  0  0  0  0  0  0  0  0  0
  -16.8572   -2.7180    0.0000 C   0  0  0  0  0  0  0  0  0  0  0  0
  -16.7004   -4.2098    0.0000 O   0  0  0  0  0  0  0  0  0  0  0  0
  -18.2275   -2.1079    0.0000 N   0  0  0  0  0  0  0  0  0  0  0  0
  -19.4410   -2.9895    0.0000 O   0  0  0  0  0  0  0  0  0  0  0  0
   -5.3083    0.7500    0.0000 N   0  0  0  0  0  0  0  0  0  0  0  0
   -3.8817    1.2135    0.0000 O   0  0  0  0  0  0  0  0  0  0  0  0
   -0.7500    1.2990    0.0000 C   0  0  0  0  0  0  0  0  0  0  0  0
    0.7500    1.2990    0.0000 C   0  0  0  0  0  0  0  0  0  0  0  0
  1  2  1  0
  2  3  2  0
  3  4  1  0
  4  5  2  0
  5  6  1  0
  6  7  2  0
  7  8  1  0
  8  9  1  0
  9 10  2  0
  9 11  1  0
 11 12  1  0
 12 13  1  0
 13 14  1  0
 14 15  1  0
 15 16  1  0
 16 17  1  0
 17 18  1  0
 18 19  2  0
 18 20  1  0
 20 21  1  0
  8 22  2  0
 22 23  1  0
  5 24  1  0
 24 25  2  0
 25  2  1  0
 23  6  1  0
M  END
>  <molecule_chembl_id>  (841) 
CHEMBL467793

>  <canonical_smiles>  (841) 
Nc1ccc(-c2cc(C(=O)NCCCCCCC(=O)NO)no2)cc1

>  <pchembl_value_mean>  (841) 
6.83

>  <document_chembl_id>  (841) 
CHEMBL1155917

$$$$

     RDKit          2D

 30 32  0  0  0  0  0  0  0  0999 V2000
    3.0000    0.0000    0.0000 N   0  0  0  0  0  0  0  0  0  0  0  0
    1.5000    0.0000    0.0000 C   0  0  0  0  0  0  0  0  0  0  0  0
    0.7500   -1.2990    0.0000 C   0  0  0  0  0  0  0  0  0  0  0  0
   -0.7500   -1.2990    0.0000 C   0  0  0  0  0  0  0  0  0  0  0  0
   -1.5000    0.0000    0.0000 C   0  0  0  0  0  0  0  0  0  0  0  0
   -0.7500    1.2990    0.0000 C   0  0  0  0  0  0  0  0  0  0  0  0
   -1.5000    2.5981    0.0000 C   0  0  0  0  0  0  0  0  0  0  0  0
   -2.9918    2.7549    0.0000 C   0  0  0  0  0  0  0  0  0  0  0  0
   -3.3037    4.2221    0.0000 S   0  0  0  0  0  0  0  0  0  0  0  0
   -2.0046    4.9721    0.0000 C   0  0  0  0  0  0  0  0  0  0  0  0
   -1.8478    6.4639    0.0000 N   0  0  0  0  0  0  0  0  0  0  0  0
   -0.4775    7.0740    0.0000 C   0  0  0  0  0  0  0  0  0  0  0  0
    0.7360    6.1923    0.0000 O   0  0  0  0  0  0  0  0  0  0  0  0
   -0.3207    8.5658    0.0000 C   0  0  0  0  0  0  0  0  0  0  0  0
    1.0496    9.1759    0.0000 C   0  0  0  0  0  0  0  0  0  0  0  0
    1.2064   10.6676    0.0000 C   0  0  0  0  0  0  0  0  0  0  0  0
    2.5767   11.2778    0.0000 C   0  0  0  0  0  0  0  0  0  0  0  0
    2.7335   12.7695    0.0000 C   0  0  0  0  0  0  0  0  0  0  0  0
    4.1038   13.3796    0.0000 C   0  0  0  0  0  0  0  0  0  0  0  0
    5.3174   12.4980    0.0000 O   0  0  0  0  0  0  0  0  0  0  0  0
    4.2606   14.8714    0.0000 N   0  0  0  0  0  0  0  0  0  0  0  0
    5.6309   15.4815    0.0000 C   0  0  0  0  0  0  0  0  0  0  0  0
    6.8445   14.5999    0.0000 C   0  0  0  0  0  0  0  0  0  0  0  0
    8.2148   15.2100    0.0000 C   0  0  0  0  0  0  0  0  0  0  0  0
    8.3716   16.7017    0.0000 C   0  0  0  0  0  0  0  0  0  0  0  0
    7.1581   17.5834    0.0000 C   0  0  0  0  0  0  0  0  0  0  0  0
    5.7877   16.9733    0.0000 C   0  0  0  0  0  0  0  0  0  0  0  0
    4.5742   17.8550    0.0000 N   0  0  0  0  0  0  0  0  0  0  0  0
   -0.8899    3.9684    0.0000 N   0  0  0  0  0  0  0  0  0  0  0  0
    0.7500    1.2990    0.0000 C   0  0  0  0  0  0  0  0  0  0  0  0
  1  2  1  0
  2  3  2  0
  3  4  1  0
  4  5  2  0
  5  6  1  0
  6  7  1  0
  7  8  2  0
  8  9  1  0
  9 10  1  0
 10 11  1  0
 11 12  1  0
 12 13  2  0
 12 14  1  0
 14 15  1  0
 15 16  1  0
 16 17  1  0
 17 18  1  0
 18 19  1  0
 19 20  2  0
 19 21  1  0
 21 22  1  0
 22 23  2  0
 23 24  1  0
 24 25  2  0
 25 26  1  0
 26 27  2  0
 27 28  1  0
 10 29  2  0
  6 30  2  0
 30  2  1  0
 29  7  1  0
 27 22  1  0
M  END
>  <molecule_chembl_id>  (842) 
CHEMBL4593729

>  <canonical_smiles>  (842) 
Nc1cccc(-c2csc(NC(=O)CCCCCC(=O)Nc3ccccc3N)n2)c1

>  <pchembl_value_mean>  (842) 
6.83

>  <document_chembl_id>  (842) 
CHEMBL4400533

$$$$

     RDKit          2D

 31 33  0  0  0  0  0  0  0  0999 V2000
    3.0000    0.0000    0.0000 N   0  0  0  0  0  0  0  0  0  0  0  0
    1.5000    0.0000    0.0000 C   0  0  0  0  0  0  0  0  0  0  0  0
    0.7500   -1.2990    0.0000 C   0  0  0  0  0  0  0  0  0  0  0  0
   -0.7500   -1.2990    0.0000 C   0  0  0  0  0  0  0  0  0  0  0  0
   -1.5000    0.0000    0.0000 C   0  0  0  0  0  0  0  0  0  0  0  0
   -0.7500    1.2990    0.0000 C   0  0  0  0  0  0  0  0  0  0  0  0
   -1.5000    2.5981    0.0000 C   0  0  0  0  0  0  0  0  0  0  0  0
   -2.9918    2.7549    0.0000 C   0  0  0  0  0  0  0  0  0  0  0  0
   -3.3037    4.2221    0.0000 S   0  0  0  0  0  0  0  0  0  0  0  0
   -2.0046    4.9721    0.0000 C   0  0  0  0  0  0  0  0  0  0  0  0
   -1.8478    6.4639    0.0000 N   0  0  0  0  0  0  0  0  0  0  0  0
   -0.4775    7.0740    0.0000 C   0  0  0  0  0  0  0  0  0  0  0  0
    0.7360    6.1923    0.0000 O   0  0  0  0  0  0  0  0  0  0  0  0
   -0.3207    8.5658    0.0000 C   0  0  0  0  0  0  0  0  0  0  0  0
    1.0496    9.1759    0.0000 C   0  0  0  0  0  0  0  0  0  0  0  0
    1.2064   10.6676    0.0000 C   0  0  0  0  0  0  0  0  0  0  0  0
    2.5767   11.2778    0.0000 C   0  0  0  0  0  0  0  0  0  0  0  0
    2.7335   12.7695    0.0000 C   0  0  0  0  0  0  0  0  0  0  0  0
    4.1038   13.3796    0.0000 C   0  0  0  0  0  0  0  0  0  0  0  0
    4.2606   14.8714    0.0000 C   0  0  0  0  0  0  0  0  0  0  0  0
    3.0471   15.7531    0.0000 O   0  0  0  0  0  0  0  0  0  0  0  0
    5.6309   15.4815    0.0000 N   0  0  0  0  0  0  0  0  0  0  0  0
    5.7877   16.9733    0.0000 C   0  0  0  0  0  0  0  0  0  0  0  0
    7.1581   17.5834    0.0000 C   0  0  0  0  0  0  0  0  0  0  0  0
    7.3148   19.0752    0.0000 C   0  0  0  0  0  0  0  0  0  0  0  0
    6.1013   19.9569    0.0000 C   0  0  0  0  0  0  0  0  0  0  0  0
    4.7310   19.3468    0.0000 C   0  0  0  0  0  0  0  0  0  0  0  0
    4.5742   17.8550    0.0000 C   0  0  0  0  0  0  0  0  0  0  0  0
    3.2039   17.2449    0.0000 N   0  0  0  0  0  0  0  0  0  0  0  0
   -0.8899    3.9684    0.0000 N   0  0  0  0  0  0  0  0  0  0  0  0
    0.7500    1.2990    0.0000 C   0  0  0  0  0  0  0  0  0  0  0  0
  1  2  1  0
  2  3  2  0
  3  4  1  0
  4  5  2  0
  5  6  1  0
  6  7  1  0
  7  8  2  0
  8  9  1  0
  9 10  1  0
 10 11  1  0
 11 12  1  0
 12 13  2  0
 12 14  1  0
 14 15  1  0
 15 16  1  0
 16 17  1  0
 17 18  1  0
 18 19  1  0
 19 20  1  0
 20 21  2  0
 20 22  1  0
 22 23  1  0
 23 24  2  0
 24 25  1  0
 25 26  2  0
 26 27  1  0
 27 28  2  0
 28 29  1  0
 10 30  2  0
  6 31  2  0
 31  2  1  0
 30  7  1  0
 28 23  1  0
M  END
>  <molecule_chembl_id>  (843) 
CHEMBL4281014

>  <canonical_smiles>  (843) 
Nc1cccc(-c2csc(NC(=O)CCCCCCC(=O)Nc3ccccc3N)n2)c1

>  <pchembl_value_mean>  (843) 
6.83

>  <document_chembl_id>  (843) 
CHEMBL4422610

$$$$

     RDKit          2D

 30 33  0  0  0  0  0  0  0  0999 V2000
    3.0000    0.0000    0.0000 N   0  0  0  0  0  0  0  0  0  0  0  0
    1.5000    0.0000    0.0000 C   0  0  0  0  0  0  0  0  0  0  0  0
    0.7500   -1.2990    0.0000 C   0  0  0  0  0  0  0  0  0  0  0  0
   -0.7500   -1.2990    0.0000 C   0  0  0  0  0  0  0  0  0  0  0  0
   -1.5000    0.0000    0.0000 C   0  0  0  0  0  0  0  0  0  0  0  0
   -0.7500    1.2990    0.0000 C   0  0  0  0  0  0  0  0  0  0  0  0
    0.7500    1.2990    0.0000 C   0  0  0  0  0  0  0  0  0  0  0  0
    1.5000    2.5981    0.0000 N   0  0  0  0  0  0  0  0  0  0  0  0
    0.7500    3.8971    0.0000 C   0  0  0  0  0  0  0  0  0  0  0  0
   -0.7500    3.8971    0.0000 O   0  0  0  0  0  0  0  0  0  0  0  0
    1.5000    5.1962    0.0000 C   0  0  0  0  0  0  0  0  0  0  0  0
    3.0000    5.1962    0.0000 C   0  0  0  0  0  0  0  0  0  0  0  0
    3.7500    6.4952    0.0000 C   0  0  0  0  0  0  0  0  0  0  0  0
    3.0000    7.7942    0.0000 C   0  0  0  0  0  0  0  0  0  0  0  0
    3.7500    9.0933    0.0000 C   0  0  0  0  0  0  0  0  0  0  0  0
    5.2500    9.0933    0.0000 N   0  0  0  0  0  0  0  0  0  0  0  0
    6.0000   10.3923    0.0000 C   0  0  0  0  0  0  0  0  0  0  0  0
    7.5000   10.3923    0.0000 N   0  0  0  0  0  0  0  0  0  0  0  0
    8.2500   11.6913    0.0000 C   0  0  0  0  0  0  0  0  0  0  0  0
    7.5000   12.9904    0.0000 C   0  0  0  0  0  0  0  0  0  0  0  0
    6.0000   12.9904    0.0000 C   0  0  0  0  0  0  0  0  0  0  0  0
    5.2500   14.2894    0.0000 C   0  0  0  0  0  0  0  0  0  0  0  0
    6.0000   15.5885    0.0000 C   0  0  0  0  0  0  0  0  0  0  0  0
    5.2500   16.8875    0.0000 C   0  0  0  0  0  0  0  0  0  0  0  0
    3.7500   16.8875    0.0000 C   0  0  0  0  0  0  0  0  0  0  0  0
    3.0000   15.5885    0.0000 N   0  0  0  0  0  0  0  0  0  0  0  0
    3.7500   14.2894    0.0000 C   0  0  0  0  0  0  0  0  0  0  0  0
    5.2500   11.6913    0.0000 N   0  0  0  0  0  0  0  0  0  0  0  0
    1.5000    7.7942    0.0000 C   0  0  0  0  0  0  0  0  0  0  0  0
    0.7500    6.4952    0.0000 C   0  0  0  0  0  0  0  0  0  0  0  0
  1  2  1  0
  2  3  2  0
  3  4  1  0
  4  5  2  0
  5  6  1  0
  6  7  2  0
  7  8  1  0
  8  9  1  0
  9 10  2  0
  9 11  1  0
 11 12  2  0
 12 13  1  0
 13 14  2  0
 14 15  1  0
 15 16  1  0
 16 17  1  0
 17 18  2  0
 18 19  1  0
 19 20  2  0
 20 21  1  0
 21 22  1  0
 22 23  2  0
 23 24  1  0
 24 25  2  0
 25 26  1  0
 26 27  2  0
 21 28  2  0
 14 29  1  0
 29 30  2  0
  7  2  1  0
 30 11  1  0
 28 17  1  0
 27 22  1  0
M  END
>  <molecule_chembl_id>  (844) 
CHEMBL272980

>  <canonical_smiles>  (844) 
Nc1ccccc1NC(=O)c1ccc(CNc2nccc(-c3cccnc3)n2)cc1

>  <pchembl_value_mean>  (844) 
6.837778

>  <document_chembl_id>  (844) 
CHEMBL1155041

$$$$

     RDKit          2D

 30 32  0  0  0  0  0  0  0  0999 V2000
   12.7500   -3.8971    0.0000 O   0  0  0  0  0  0  0  0  0  0  0  0
   12.0000   -5.1962    0.0000 C   0  0  0  0  0  0  0  0  0  0  0  0
   10.5000   -5.1962    0.0000 C   0  0  0  0  0  0  0  0  0  0  0  0
    9.7500   -3.8971    0.0000 C   0  0  0  0  0  0  0  0  0  0  0  0
    8.2500   -3.8971    0.0000 C   0  0  0  0  0  0  0  0  0  0  0  0
    7.5000   -2.5981    0.0000 C   0  0  0  0  0  0  0  0  0  0  0  0
    6.0000   -2.5981    0.0000 C   0  0  0  0  0  0  0  0  0  0  0  0
    5.2500   -1.2990    0.0000 C   0  0  0  0  0  0  0  0  0  0  0  0
    3.7500   -1.2990    0.0000 C   0  0  0  0  0  0  0  0  0  0  0  0
    3.0000   -2.5981    0.0000 O   0  0  0  0  0  0  0  0  0  0  0  0
    3.0000    0.0000    0.0000 N   0  0  0  0  0  0  0  0  0  0  0  0
    1.5000    0.0000    0.0000 C   0  0  0  0  0  0  0  0  0  0  0  0
    0.7500   -1.2990    0.0000 C   0  0  0  0  0  0  0  0  0  0  0  0
   -0.7500   -1.2990    0.0000 C   0  0  0  0  0  0  0  0  0  0  0  0
   -1.5000    0.0000    0.0000 C   0  0  0  0  0  0  0  0  0  0  0  0
   -3.0000    0.0000    0.0000 C   0  0  0  0  0  0  0  0  0  0  0  0
   -3.8817   -1.2135    0.0000 C   0  0  0  0  0  0  0  0  0  0  0  0
   -5.3083   -0.7500    0.0000 N   0  0  0  0  0  0  0  0  0  0  0  0
   -5.3083    0.7500    0.0000 N   0  0  0  0  0  0  0  0  0  0  0  0
   -3.8817    1.2135    0.0000 N   0  0  0  0  0  0  0  0  0  0  0  0
   -3.4182    2.6401    0.0000 C   0  0  0  0  0  0  0  0  0  0  0  0
   -1.9509    2.9520    0.0000 C   0  0  0  0  0  0  0  0  0  0  0  0
   -1.4874    4.3786    0.0000 C   0  0  0  0  0  0  0  0  0  0  0  0
   -2.4911    5.4933    0.0000 C   0  0  0  0  0  0  0  0  0  0  0  0
   -3.9583    5.1814    0.0000 C   0  0  0  0  0  0  0  0  0  0  0  0
   -4.4218    3.7548    0.0000 C   0  0  0  0  0  0  0  0  0  0  0  0
   -0.7500    1.2990    0.0000 C   0  0  0  0  0  0  0  0  0  0  0  0
    0.7500    1.2990    0.0000 C   0  0  0  0  0  0  0  0  0  0  0  0
   12.7500   -6.4952    0.0000 N   0  0  0  0  0  0  0  0  0  0  0  0
   14.2500   -6.4952    0.0000 O   0  0  0  0  0  0  0  0  0  0  0  0
  1  2  2  0
  2  3  1  0
  3  4  1  0
  4  5  1  0
  5  6  1  0
  6  7  1  0
  7  8  1  0
  8  9  1  0
  9 10  2  0
  9 11  1  0
 11 12  1  0
 12 13  2  0
 13 14  1  0
 14 15  2  0
 15 16  1  0
 16 17  2  0
 17 18  1  0
 18 19  2  0
 19 20  1  0
 20 21  1  0
 21 22  2  0
 22 23  1  0
 23 24  2  0
 24 25  1  0
 25 26  2  0
 15 27  1  0
 27 28  2  0
  2 29  1  0
 29 30  1  0
 28 12  1  0
 20 16  1  0
 26 21  1  0
M  END
>  <molecule_chembl_id>  (845) 
CHEMBL487742

>  <canonical_smiles>  (845) 
O=C(CCCCCCC(=O)Nc1ccc(-c2cnnn2-c2ccccc2)cc1)NO

>  <pchembl_value_mean>  (845) 
6.84

>  <document_chembl_id>  (845) 
CHEMBL1150413

$$$$

     RDKit          2D

 34 36  0  0  0  0  0  0  0  0999 V2000
   12.7500   -3.8971    0.0000 O   0  0  0  0  0  0  0  0  0  0  0  0
   12.0000   -5.1962    0.0000 C   0  0  0  0  0  0  0  0  0  0  0  0
   10.5000   -5.1962    0.0000 C   0  0  0  0  0  0  0  0  0  0  0  0
    9.7500   -3.8971    0.0000 C   0  0  0  0  0  0  0  0  0  0  0  0
    8.2500   -3.8971    0.0000 C   0  0  0  0  0  0  0  0  0  0  0  0
    7.5000   -2.5981    0.0000 C   0  0  0  0  0  0  0  0  0  0  0  0
    6.0000   -2.5981    0.0000 C   0  0  0  0  0  0  0  0  0  0  0  0
    5.2500   -1.2990    0.0000 C   0  0  0  0  0  0  0  0  0  0  0  0
    3.7500   -1.2990    0.0000 C   0  0  0  0  0  0  0  0  0  0  0  0
    3.0000   -2.5981    0.0000 O   0  0  0  0  0  0  0  0  0  0  0  0
    3.0000    0.0000    0.0000 N   0  0  0  0  0  0  0  0  0  0  0  0
    1.5000    0.0000    0.0000 C   0  0  0  0  0  0  0  0  0  0  0  0
    0.7500   -1.2990    0.0000 C   0  0  0  0  0  0  0  0  0  0  0  0
   -0.7500   -1.2990    0.0000 C   0  0  0  0  0  0  0  0  0  0  0  0
   -1.5000    0.0000    0.0000 C   0  0  0  0  0  0  0  0  0  0  0  0
   -3.0000    0.0000    0.0000 C   0  0  0  0  0  0  0  0  0  0  0  0
   -3.8817   -1.2135    0.0000 C   0  0  0  0  0  0  0  0  0  0  0  0
   -5.3083   -0.7500    0.0000 N   0  0  0  0  0  0  0  0  0  0  0  0
   -6.5218   -1.6317    0.0000 C   0  0  0  0  0  0  0  0  0  0  0  0
   -7.8921   -1.0216    0.0000 C   0  0  0  0  0  0  0  0  0  0  0  0
   -8.0489    0.4702    0.0000 O   0  0  0  0  0  0  0  0  0  0  0  0
   -9.1056   -1.9033    0.0000 C   0  0  0  0  0  0  0  0  0  0  0  0
  -10.4760   -1.2931    0.0000 C   0  0  0  0  0  0  0  0  0  0  0  0
  -11.6895   -2.1748    0.0000 C   0  0  0  0  0  0  0  0  0  0  0  0
  -11.5327   -3.6666    0.0000 C   0  0  0  0  0  0  0  0  0  0  0  0
  -10.1624   -4.2767    0.0000 C   0  0  0  0  0  0  0  0  0  0  0  0
  -10.0056   -5.7685    0.0000 Br  0  0  0  0  0  0  0  0  0  0  0  0
   -8.9488   -3.3950    0.0000 C   0  0  0  0  0  0  0  0  0  0  0  0
   -5.3083    0.7500    0.0000 N   0  0  0  0  0  0  0  0  0  0  0  0
   -3.8817    1.2135    0.0000 N   0  0  0  0  0  0  0  0  0  0  0  0
   -0.7500    1.2990    0.0000 C   0  0  0  0  0  0  0  0  0  0  0  0
    0.7500    1.2990    0.0000 C   0  0  0  0  0  0  0  0  0  0  0  0
   12.7500   -6.4952    0.0000 N   0  0  0  0  0  0  0  0  0  0  0  0
   14.2500   -6.4952    0.0000 O   0  0  0  0  0  0  0  0  0  0  0  0
  1  2  2  0
  2  3  1  0
  3  4  1  0
  4  5  1  0
  5  6  1  0
  6  7  1  0
  7  8  1  0
  8  9  1  0
  9 10  2  0
  9 11  1  0
 11 12  1  0
 12 13  2  0
 13 14  1  0
 14 15  2  0
 15 16  1  0
 16 17  2  0
 17 18  1  0
 18 19  1  0
 19 20  1  0
 20 21  1  0
 20 22  1  0
 22 23  2  0
 23 24  1  0
 24 25  2  0
 25 26  1  0
 26 27  1  0
 26 28  2  0
 18 29  1  0
 29 30  2  0
 15 31  1  0
 31 32  2  0
  2 33  1  0
 33 34  1  0
 32 12  1  0
 30 16  1  0
 28 22  1  0
M  END
>  <molecule_chembl_id>  (846) 
CHEMBL483495

>  <canonical_smiles>  (846) 
O=C(CCCCCCC(=O)Nc1ccc(-c2cn(CC(O)c3cccc(Br)c3)nn2)cc1)NO

>  <pchembl_value_mean>  (846) 
6.84

>  <document_chembl_id>  (846) 
CHEMBL1150413

$$$$

     RDKit          2D

 38 42  0  0  0  0  0  0  0  0999 V2000
    3.7500   -1.2990    0.0000 C   0  0  0  0  0  0  0  0  0  0  0  0
    3.0000    0.0000    0.0000 O   0  0  0  0  0  0  0  0  0  0  0  0
    1.5000    0.0000    0.0000 C   0  0  0  0  0  0  0  0  0  0  0  0
    0.7500   -1.2990    0.0000 C   0  0  0  0  0  0  0  0  0  0  0  0
   -0.7500   -1.2990    0.0000 C   0  0  0  0  0  0  0  0  0  0  0  0
   -1.5000    0.0000    0.0000 C   0  0  0  0  0  0  0  0  0  0  0  0
   -3.0000    0.0000    0.0000 C   0  0  0  0  0  0  0  0  0  0  0  0
   -3.8817   -1.2135    0.0000 C   0  0  0  0  0  0  0  0  0  0  0  0
   -5.3083   -0.7500    0.0000 C   0  0  0  0  0  0  0  0  0  0  0  0
   -6.5218   -1.6317    0.0000 C   0  0  0  0  0  0  0  0  0  0  0  0
   -7.8921   -1.0216    0.0000 C   0  0  0  0  0  0  0  0  0  0  0  0
   -9.1056   -1.9033    0.0000 C   0  0  0  0  0  0  0  0  0  0  0  0
   -8.9488   -3.3950    0.0000 C   0  0  0  0  0  0  0  0  0  0  0  0
   -7.5785   -4.0051    0.0000 C   0  0  0  0  0  0  0  0  0  0  0  0
   -6.3650   -3.1235    0.0000 C   0  0  0  0  0  0  0  0  0  0  0  0
   -5.3083    0.7500    0.0000 N   0  0  0  0  0  0  0  0  0  0  0  0
   -3.8817    1.2135    0.0000 C   0  0  0  0  0  0  0  0  0  0  0  0
   -3.4182    2.6401    0.0000 C   0  0  0  0  0  0  0  0  0  0  0  0
   -1.9509    2.9520    0.0000 O   0  0  0  0  0  0  0  0  0  0  0  0
   -4.4218    3.7548    0.0000 N   0  0  0  0  0  0  0  0  0  0  0  0
   -3.9583    5.1814    0.0000 C   0  0  0  0  0  0  0  0  0  0  0  0
   -4.9620    6.2961    0.0000 C   0  0  0  0  0  0  0  0  0  0  0  0
   -4.4985    7.7227    0.0000 C   0  0  0  0  0  0  0  0  0  0  0  0
   -5.5022    8.8374    0.0000 C   0  0  0  0  0  0  0  0  0  0  0  0
   -6.9694    8.5256    0.0000 C   0  0  0  0  0  0  0  0  0  0  0  0
   -7.9731    9.6403    0.0000 C   0  0  0  0  0  0  0  0  0  0  0  0
   -9.4403    9.3284    0.0000 O   0  0  0  0  0  0  0  0  0  0  0  0
   -7.5096   11.0669    0.0000 N   0  0  0  0  0  0  0  0  0  0  0  0
   -8.5133   12.1816    0.0000 C   0  0  0  0  0  0  0  0  0  0  0  0
   -8.0498   13.6082    0.0000 C   0  0  0  0  0  0  0  0  0  0  0  0
   -9.0534   14.7229    0.0000 C   0  0  0  0  0  0  0  0  0  0  0  0
  -10.5207   14.4110    0.0000 C   0  0  0  0  0  0  0  0  0  0  0  0
  -10.9842   12.9844    0.0000 C   0  0  0  0  0  0  0  0  0  0  0  0
   -9.9805   11.8697    0.0000 N   0  0  0  0  0  0  0  0  0  0  0  0
   -7.4329    7.0990    0.0000 C   0  0  0  0  0  0  0  0  0  0  0  0
   -6.4292    5.9843    0.0000 C   0  0  0  0  0  0  0  0  0  0  0  0
   -0.7500    1.2990    0.0000 C   0  0  0  0  0  0  0  0  0  0  0  0
    0.7500    1.2990    0.0000 C   0  0  0  0  0  0  0  0  0  0  0  0
  1  2  1  0
  2  3  1  0
  3  4  2  0
  4  5  1  0
  5  6  2  0
  6  7  1  0
  7  8  1  0
  8  9  2  0
  9 10  1  0
 10 11  2  0
 11 12  1  0
 12 13  2  0
 13 14  1  0
 14 15  2  0
  9 16  1  0
 16 17  1  0
 17 18  1  0
 18 19  2  0
 18 20  1  0
 20 21  1  0
 21 22  1  0
 22 23  2  0
 23 24  1  0
 24 25  2  0
 25 26  1  0
 26 27  2  0
 26 28  1  0
 28 29  1  0
 29 30  2  0
 30 31  1  0
 31 32  2  0
 32 33  1  0
 33 34  2  0
 25 35  1  0
 35 36  2  0
  6 37  1  0
 37 38  2  0
 38  3  1  0
 17  7  2  0
 36 22  1  0
 15 10  1  0
 34 29  1  0
M  END
>  <molecule_chembl_id>  (847) 
CHEMBL3670669

>  <canonical_smiles>  (847) 
COc1ccc(-c2cc(-c3ccccc3)[nH]c2C(=O)NCc2ccc(C(=O)Nc3ccccn3)cc2)cc1

>  <pchembl_value_mean>  (847) 
6.84

>  <document_chembl_id>  (847) 
CHEMBL3638813

$$$$

     RDKit          2D

 32 33  0  0  0  0  0  0  0  0999 V2000
    3.0000    0.0000    0.0000 C   0  0  0  0  0  0  0  0  0  0  0  0
    1.5000    0.0000    0.0000 C   0  0  0  0  0  0  0  0  0  0  0  0
    0.7500   -1.2990    0.0000 C   0  0  0  0  0  0  0  0  0  0  0  0
   -0.7500   -1.2990    0.0000 C   0  0  0  0  0  0  0  0  0  0  0  0
   -1.5000    0.0000    0.0000 C   0  0  0  0  0  0  0  0  0  0  0  0
   -3.0000    0.0000    0.0000 N   0  0  0  0  0  0  0  0  0  0  0  0
   -3.7500    1.2990    0.0000 C   0  0  0  0  0  0  0  0  0  0  0  0
   -3.0000    2.5981    0.0000 O   0  0  0  0  0  0  0  0  0  0  0  0
   -5.2500    1.2990    0.0000 C   0  0  0  0  0  0  0  0  0  0  0  0
   -6.0000    2.5981    0.0000 N   0  0  0  0  0  0  0  0  0  0  0  0
   -7.5000    2.5981    0.0000 C   0  0  0  0  0  0  0  0  0  0  0  0
   -8.2500    3.8971    0.0000 C   0  0  0  0  0  0  0  0  0  0  0  0
   -9.7500    3.8971    0.0000 C   0  0  0  0  0  0  0  0  0  0  0  0
  -10.5000    5.1962    0.0000 C   0  0  0  0  0  0  0  0  0  0  0  0
  -12.0000    5.1962    0.0000 C   0  0  0  0  0  0  0  0  0  0  0  0
  -12.7500    6.4952    0.0000 C   0  0  0  0  0  0  0  0  0  0  0  0
  -12.0000    7.7942    0.0000 O   0  0  0  0  0  0  0  0  0  0  0  0
  -14.2500    6.4952    0.0000 N   0  0  0  0  0  0  0  0  0  0  0  0
  -15.0000    7.7942    0.0000 O   0  0  0  0  0  0  0  0  0  0  0  0
   -5.2500    3.8971    0.0000 C   0  0  0  0  0  0  0  0  0  0  0  0
   -3.7500    3.8971    0.0000 O   0  0  0  0  0  0  0  0  0  0  0  0
   -6.0000    5.1962    0.0000 C   0  0  0  0  0  0  0  0  0  0  0  0
   -5.2500    6.4952    0.0000 C   0  0  0  0  0  0  0  0  0  0  0  0
   -6.0000    7.7942    0.0000 C   0  0  0  0  0  0  0  0  0  0  0  0
   -7.5000    7.7942    0.0000 C   0  0  0  0  0  0  0  0  0  0  0  0
   -8.2500    9.0933    0.0000 N   0  0  0  0  0  0  0  0  0  0  0  0
   -7.5000   10.3923    0.0000 C   0  0  0  0  0  0  0  0  0  0  0  0
   -9.7500    9.0933    0.0000 C   0  0  0  0  0  0  0  0  0  0  0  0
   -8.2500    6.4952    0.0000 C   0  0  0  0  0  0  0  0  0  0  0  0
   -7.5000    5.1962    0.0000 C   0  0  0  0  0  0  0  0  0  0  0  0
   -0.7500    1.2990    0.0000 C   0  0  0  0  0  0  0  0  0  0  0  0
    0.7500    1.2990    0.0000 C   0  0  0  0  0  0  0  0  0  0  0  0
  1  2  1  0
  2  3  2  0
  3  4  1  0
  4  5  2  0
  5  6  1  0
  6  7  1  0
  7  8  2  0
  7  9  1  0
  9 10  1  0
 10 11  1  0
 11 12  1  0
 12 13  1  0
 13 14  1  0
 14 15  1  0
 15 16  1  0
 16 17  2  0
 16 18  1  0
 18 19  1  0
 10 20  1  0
 20 21  2  0
 20 22  1  0
 22 23  2  0
 23 24  1  0
 24 25  2  0
 25 26  1  0
 26 27  1  0
 26 28  1  0
 25 29  1  0
 29 30  2  0
  5 31  1  0
 31 32  2  0
 32  2  1  0
 30 22  1  0
M  END
>  <molecule_chembl_id>  (848) 
CHEMBL4080343

>  <canonical_smiles>  (848) 
Cc1ccc(NC(=O)CN(CCCCCC(=O)NO)C(=O)c2ccc(N(C)C)cc2)cc1

>  <pchembl_value_mean>  (848) 
6.84

>  <document_chembl_id>  (848) 
CHEMBL4014348

$$$$

     RDKit          2D

 29 31  0  0  0  0  0  0  0  0999 V2000
    3.0000    0.0000    0.0000 N   0  0  0  0  0  0  0  0  0  0  0  0
    1.5000    0.0000    0.0000 C   0  0  0  0  0  0  0  0  0  0  0  0
    0.7500   -1.2990    0.0000 C   0  0  0  0  0  0  0  0  0  0  0  0
   -0.7500   -1.2990    0.0000 C   0  0  0  0  0  0  0  0  0  0  0  0
   -1.5000   -2.5981    0.0000 F   0  0  0  0  0  0  0  0  0  0  0  0
   -1.5000    0.0000    0.0000 C   0  0  0  0  0  0  0  0  0  0  0  0
   -0.7500    1.2990    0.0000 C   0  0  0  0  0  0  0  0  0  0  0  0
    0.7500    1.2990    0.0000 C   0  0  0  0  0  0  0  0  0  0  0  0
    1.5000    2.5981    0.0000 N   0  0  0  0  0  0  0  0  0  0  0  0
    0.7500    3.8971    0.0000 C   0  0  0  0  0  0  0  0  0  0  0  0
   -0.7500    3.8971    0.0000 O   0  0  0  0  0  0  0  0  0  0  0  0
    1.5000    5.1962    0.0000 C   0  0  0  0  0  0  0  0  0  0  0  0
    3.0000    5.1962    0.0000 C   0  0  0  0  0  0  0  0  0  0  0  0
    3.7500    6.4952    0.0000 C   0  0  0  0  0  0  0  0  0  0  0  0
    3.0000    7.7942    0.0000 C   0  0  0  0  0  0  0  0  0  0  0  0
    3.7500    9.0933    0.0000 C   0  0  0  0  0  0  0  0  0  0  0  0
    5.2500    9.0933    0.0000 N   0  0  0  0  0  0  0  0  0  0  0  0
    6.0000   10.3923    0.0000 C   0  0  0  0  0  0  0  0  0  0  0  0
    5.2500   11.6913    0.0000 O   0  0  0  0  0  0  0  0  0  0  0  0
    7.5000   10.3923    0.0000 C   0  0  0  0  0  0  0  0  0  0  0  0
    8.2500   11.6913    0.0000 C   0  0  0  0  0  0  0  0  0  0  0  0
    9.7500   11.6913    0.0000 C   0  0  0  0  0  0  0  0  0  0  0  0
   10.5000   10.3923    0.0000 C   0  0  0  0  0  0  0  0  0  0  0  0
   12.0000   10.3923    0.0000 C   0  0  0  0  0  0  0  0  0  0  0  0
   12.7500   11.6913    0.0000 C   0  0  0  0  0  0  0  0  0  0  0  0
   12.0000   12.9904    0.0000 C   0  0  0  0  0  0  0  0  0  0  0  0
   10.5000   12.9904    0.0000 C   0  0  0  0  0  0  0  0  0  0  0  0
    1.5000    7.7942    0.0000 C   0  0  0  0  0  0  0  0  0  0  0  0
    0.7500    6.4952    0.0000 C   0  0  0  0  0  0  0  0  0  0  0  0
  1  2  1  0
  2  3  2  0
  3  4  1  0
  4  5  1  0
  4  6  2  0
  6  7  1  0
  7  8  2  0
  8  9  1  0
  9 10  1  0
 10 11  2  0
 10 12  1  0
 12 13  2  0
 13 14  1  0
 14 15  2  0
 15 16  1  0
 16 17  1  0
 17 18  1  0
 18 19  2  0
 18 20  1  0
 20 21  2  3
 21 22  1  0
 22 23  2  0
 23 24  1  0
 24 25  2  0
 25 26  1  0
 26 27  2  0
 15 28  1  0
 28 29  2  0
  8  2  1  0
 29 12  1  0
 27 22  1  0
M  END
>  <molecule_chembl_id>  (849) 
CHEMBL4444211

>  <canonical_smiles>  (849) 
Nc1cc(F)ccc1NC(=O)c1ccc(CNC(=O)C=Cc2ccccc2)cc1

>  <pchembl_value_mean>  (849) 
6.85

>  <document_chembl_id>  (849) 
CHEMBL4334541

$$$$

     RDKit          2D

 24 26  0  0  0  0  0  0  0  0999 V2000
    3.7500    1.2990    0.0000 O   0  0  0  0  0  0  0  0  0  0  0  0
    3.0000    0.0000    0.0000 C   0  0  0  0  0  0  0  0  0  0  0  0
    3.7500   -1.2990    0.0000 N   0  0  0  0  0  0  0  0  0  0  0  0
    5.2500   -1.2990    0.0000 O   0  0  0  0  0  0  0  0  0  0  0  0
    1.5000    0.0000    0.0000 C   0  0  0  0  0  0  0  0  0  0  0  0
    0.7500   -1.2990    0.0000 C   0  0  0  0  0  0  0  0  0  0  0  0
   -0.7500   -1.2990    0.0000 N   0  0  0  0  0  0  0  0  0  0  0  0
   -1.5000    0.0000    0.0000 C   0  0  0  0  0  0  0  0  0  0  0  0
   -3.0000    0.0000    0.0000 N   0  0  0  0  0  0  0  0  0  0  0  0
   -3.7500    1.2990    0.0000 C   0  0  0  0  0  0  0  0  0  0  0  0
   -5.2500    1.2990    0.0000 C   0  0  0  0  0  0  0  0  0  0  0  0
   -6.0000    2.5981    0.0000 C   0  0  0  0  0  0  0  0  0  0  0  0
   -7.5000    2.5981    0.0000 C   0  0  0  0  0  0  0  0  0  0  0  0
   -8.2500    1.2990    0.0000 C   0  0  0  0  0  0  0  0  0  0  0  0
   -7.5000    0.0000    0.0000 C   0  0  0  0  0  0  0  0  0  0  0  0
   -6.0000    0.0000    0.0000 C   0  0  0  0  0  0  0  0  0  0  0  0
   -3.0000    2.5981    0.0000 C   0  0  0  0  0  0  0  0  0  0  0  0
   -1.5000    2.5981    0.0000 C   0  0  0  0  0  0  0  0  0  0  0  0
   -0.7500    3.8971    0.0000 C   0  0  0  0  0  0  0  0  0  0  0  0
   -1.5000    5.1962    0.0000 C   0  0  0  0  0  0  0  0  0  0  0  0
   -3.0000    5.1962    0.0000 C   0  0  0  0  0  0  0  0  0  0  0  0
   -3.7500    3.8971    0.0000 C   0  0  0  0  0  0  0  0  0  0  0  0
   -0.7500    1.2990    0.0000 N   0  0  0  0  0  0  0  0  0  0  0  0
    0.7500    1.2990    0.0000 C   0  0  0  0  0  0  0  0  0  0  0  0
  1  2  2  0
  2  3  1  0
  3  4  1  0
  2  5  1  0
  5  6  2  0
  6  7  1  0
  7  8  2  0
  8  9  1  0
  9 10  1  0
 10 11  1  0
 11 12  2  0
 12 13  1  0
 13 14  2  0
 14 15  1  0
 15 16  2  0
 10 17  1  0
 17 18  2  0
 18 19  1  0
 19 20  2  0
 20 21  1  0
 21 22  2  0
  8 23  1  0
 23 24  2  0
 24  5  1  0
 16 11  1  0
 22 17  1  0
M  END
>  <molecule_chembl_id>  (850) 
CHEMBL3655942

>  <canonical_smiles>  (850) 
O=C(NO)c1cnc(NC(c2ccccc2)c2ccccc2)nc1

>  <pchembl_value_mean>  (850) 
6.85

>  <document_chembl_id>  (850) 
CHEMBL3639071

$$$$

     RDKit          2D

 26 27  0  0  0  0  0  0  0  0999 V2000
   12.3095  -15.3416    0.0000 C   0  0  0  0  0  0  0  0  0  0  0  0
   10.9392  -14.7315    0.0000 C   0  0  0  0  0  0  0  0  0  0  0  0
    9.7257  -15.6132    0.0000 O   0  0  0  0  0  0  0  0  0  0  0  0
   10.7824  -13.2397    0.0000 S   0  0  0  0  0  0  0  0  0  0  0  0
    9.4121  -12.6296    0.0000 C   0  0  0  0  0  0  0  0  0  0  0  0
    9.2553  -11.1379    0.0000 C   0  0  0  0  0  0  0  0  0  0  0  0
    7.8850  -10.5278    0.0000 C   0  0  0  0  0  0  0  0  0  0  0  0
    7.7282   -9.0360    0.0000 C   0  0  0  0  0  0  0  0  0  0  0  0
    6.3579   -8.4259    0.0000 C   0  0  0  0  0  0  0  0  0  0  0  0
    6.2011   -6.9341    0.0000 C   0  0  0  0  0  0  0  0  0  0  0  0
    4.8308   -6.3240    0.0000 N   0  0  0  0  0  0  0  0  0  0  0  0
    4.6740   -4.8322    0.0000 C   0  0  0  0  0  0  0  0  0  0  0  0
    5.8875   -3.9505    0.0000 O   0  0  0  0  0  0  0  0  0  0  0  0
    3.3037   -4.2221    0.0000 C   0  0  0  0  0  0  0  0  0  0  0  0
    2.9918   -2.7549    0.0000 C   0  0  0  0  0  0  0  0  0  0  0  0
    1.5000   -2.5981    0.0000 C   0  0  0  0  0  0  0  0  0  0  0  0
    0.7500   -1.2990    0.0000 C   0  0  0  0  0  0  0  0  0  0  0  0
    1.5000    0.0000    0.0000 C   0  0  0  0  0  0  0  0  0  0  0  0
    0.7500    1.2990    0.0000 C   0  0  0  0  0  0  0  0  0  0  0  0
   -0.7500    1.2990    0.0000 C   0  0  0  0  0  0  0  0  0  0  0  0
   -1.5000    2.5981    0.0000 F   0  0  0  0  0  0  0  0  0  0  0  0
   -1.5000    0.0000    0.0000 C   0  0  0  0  0  0  0  0  0  0  0  0
   -0.7500   -1.2990    0.0000 C   0  0  0  0  0  0  0  0  0  0  0  0
    0.8899   -3.9684    0.0000 N   0  0  0  0  0  0  0  0  0  0  0  0
    2.0046   -4.9721    0.0000 N   0  0  0  0  0  0  0  0  0  0  0  0
    1.8478   -6.4639    0.0000 C   0  0  0  0  0  0  0  0  0  0  0  0
  1  2  1  0
  2  3  2  0
  2  4  1  0
  4  5  1  0
  5  6  1  0
  6  7  1  0
  7  8  1  0
  8  9  1  0
  9 10  1  0
 10 11  1  0
 11 12  1  0
 12 13  2  0
 12 14  1  0
 14 15  2  0
 15 16  1  0
 16 17  1  0
 17 18  2  0
 18 19  1  0
 19 20  2  0
 20 21  1  0
 20 22  1  0
 22 23  2  0
 16 24  2  0
 24 25  1  0
 25 26  1  0
 25 14  1  0
 23 17  1  0
M  END
>  <molecule_chembl_id>  (851) 
CHEMBL3759869

>  <canonical_smiles>  (851) 
CC(=O)SCCCCCCNC(=O)c1cc(-c2ccc(F)cc2)nn1C

>  <pchembl_value_mean>  (851) 
6.85

>  <document_chembl_id>  (851) 
CHEMBL3758139

$$$$

     RDKit          2D

 29 32  0  0  0  0  0  0  0  0999 V2000
    3.0000    0.0000    0.0000 N   0  0  0  0  0  0  0  0  0  0  0  0
    1.5000    0.0000    0.0000 C   0  0  0  0  0  0  0  0  0  0  0  0
    0.7500   -1.2990    0.0000 C   0  0  0  0  0  0  0  0  0  0  0  0
   -0.7500   -1.2990    0.0000 C   0  0  0  0  0  0  0  0  0  0  0  0
   -1.5000    0.0000    0.0000 C   0  0  0  0  0  0  0  0  0  0  0  0
   -0.7500    1.2990    0.0000 C   0  0  0  0  0  0  0  0  0  0  0  0
    0.7500    1.2990    0.0000 C   0  0  0  0  0  0  0  0  0  0  0  0
    1.5000    2.5981    0.0000 N   0  0  0  0  0  0  0  0  0  0  0  0
    0.7500    3.8971    0.0000 C   0  0  0  0  0  0  0  0  0  0  0  0
   -0.7500    3.8971    0.0000 O   0  0  0  0  0  0  0  0  0  0  0  0
    1.5000    5.1962    0.0000 C   0  0  0  0  0  0  0  0  0  0  0  0
    3.0000    5.1962    0.0000 C   0  0  0  0  0  0  0  0  0  0  0  0
    3.7500    6.4952    0.0000 C   0  0  0  0  0  0  0  0  0  0  0  0
    3.0000    7.7942    0.0000 C   0  0  0  0  0  0  0  0  0  0  0  0
    3.7500    9.0933    0.0000 C   0  0  0  0  0  0  0  0  0  0  0  0
    5.2500    9.0933    0.0000 N   0  0  0  0  0  0  0  0  0  0  0  0
    6.0000   10.3923    0.0000 C   0  0  0  0  0  0  0  0  0  0  0  0
    7.5000   10.3923    0.0000 N   0  0  0  0  0  0  0  0  0  0  0  0
    8.2500   11.6913    0.0000 C   0  0  0  0  0  0  0  0  0  0  0  0
    7.5000   12.9904    0.0000 C   0  0  0  0  0  0  0  0  0  0  0  0
    6.0000   12.9904    0.0000 C   0  0  0  0  0  0  0  0  0  0  0  0
    5.2500   14.2894    0.0000 C   0  0  0  0  0  0  0  0  0  0  0  0
    3.7582   14.4462    0.0000 C   0  0  0  0  0  0  0  0  0  0  0  0
    3.4463   15.9134    0.0000 C   0  0  0  0  0  0  0  0  0  0  0  0
    4.7454   16.6634    0.0000 N   0  0  0  0  0  0  0  0  0  0  0  0
    5.8601   15.6597    0.0000 N   0  0  0  0  0  0  0  0  0  0  0  0
    5.2500   11.6913    0.0000 N   0  0  0  0  0  0  0  0  0  0  0  0
    1.5000    7.7942    0.0000 C   0  0  0  0  0  0  0  0  0  0  0  0
    0.7500    6.4952    0.0000 C   0  0  0  0  0  0  0  0  0  0  0  0
  1  2  1  0
  2  3  2  0
  3  4  1  0
  4  5  2  0
  5  6  1  0
  6  7  2  0
  7  8  1  0
  8  9  1  0
  9 10  2  0
  9 11  1  0
 11 12  2  0
 12 13  1  0
 13 14  2  0
 14 15  1  0
 15 16  1  0
 16 17  1  0
 17 18  2  0
 18 19  1  0
 19 20  2  0
 20 21  1  0
 21 22  1  0
 22 23  2  0
 23 24  1  0
 24 25  2  0
 25 26  1  0
 21 27  2  0
 14 28  1  0
 28 29  2  0
  7  2  1  0
 29 11  1  0
 27 17  1  0
 26 22  1  0
M  END
>  <molecule_chembl_id>  (852) 
CHEMBL481805

>  <canonical_smiles>  (852) 
Nc1ccccc1NC(=O)c1ccc(CNc2nccc(-c3ccn[nH]3)n2)cc1

>  <pchembl_value_mean>  (852) 
6.85

>  <document_chembl_id>  (852) 
CHEMBL1143305

$$$$

     RDKit          2D

 24 26  0  0  0  0  0  0  0  0999 V2000
    3.7500   -1.2990    0.0000 N   0  0  0  0  0  0  0  0  0  0  0  0
    3.0000    0.0000    0.0000 C   0  0  0  0  0  0  0  0  0  0  0  0
    3.7500    1.2990    0.0000 O   0  0  0  0  0  0  0  0  0  0  0  0
    1.5000    0.0000    0.0000 C   0  0  0  0  0  0  0  0  0  0  0  0
    0.7500   -1.2990    0.0000 C   0  0  0  0  0  0  0  0  0  0  0  0
   -0.7500   -1.2990    0.0000 C   0  0  0  0  0  0  0  0  0  0  0  0
   -1.5000    0.0000    0.0000 C   0  0  0  0  0  0  0  0  0  0  0  0
   -0.7500    1.2990    0.0000 C   0  0  0  0  0  0  0  0  0  0  0  0
    0.7500    1.2990    0.0000 C   0  0  0  0  0  0  0  0  0  0  0  0
   -1.5000    2.5981    0.0000 C   0  0  0  0  0  0  0  0  0  0  0  0
   -3.0000    2.5981    0.0000 C   0  0  0  0  0  0  0  0  0  0  0  0
   -3.7500    1.2990    0.0000 C   0  0  0  0  0  0  0  0  0  0  0  0
   -3.0000    0.0000    0.0000 N   0  0  0  0  0  0  0  0  0  0  0  0
   -3.7500   -1.2990    0.0000 C   0  0  0  0  0  0  0  0  0  0  0  0
   -5.2500   -1.2990    0.0000 C   0  0  0  0  0  0  0  0  0  0  0  0
   -6.0000    0.0000    0.0000 C   0  0  0  0  0  0  0  0  0  0  0  0
   -7.5000    0.0000    0.0000 C   0  0  0  0  0  0  0  0  0  0  0  0
   -8.2500   -1.2990    0.0000 C   0  0  0  0  0  0  0  0  0  0  0  0
   -9.7500   -1.2990    0.0000 C   0  0  0  0  0  0  0  0  0  0  0  0
  -10.5000   -2.5981    0.0000 O   0  0  0  0  0  0  0  0  0  0  0  0
  -10.5000    0.0000    0.0000 N   0  0  0  0  0  0  0  0  0  0  0  0
  -12.0000    0.0000    0.0000 O   0  0  0  0  0  0  0  0  0  0  0  0
   -7.5000   -2.5981    0.0000 C   0  0  0  0  0  0  0  0  0  0  0  0
   -6.0000   -2.5981    0.0000 C   0  0  0  0  0  0  0  0  0  0  0  0
  1  2  1  0
  2  3  2  0
  2  4  1  0
  4  5  2  0
  5  6  1  0
  6  7  2  0
  7  8  1  0
  8  9  2  0
  8 10  1  0
 10 11  1  0
 11 12  1  0
 12 13  1  0
 13 14  1  0
 14 15  1  0
 15 16  2  0
 16 17  1  0
 17 18  2  0
 18 19  1  0
 19 20  2  0
 19 21  1  0
 21 22  1  0
 18 23  1  0
 23 24  2  0
  9  4  1  0
 24 15  1  0
 13  7  1  0
M  END
>  <molecule_chembl_id>  (853) 
CHEMBL4846435

>  <canonical_smiles>  (853) 
NC(=O)c1ccc2c(c1)CCCN2Cc1ccc(C(=O)NO)cc1

>  <pchembl_value_mean>  (853) 
6.85

>  <document_chembl_id>  (853) 
CHEMBL4823254

$$$$

     RDKit          2D

 38 43  0  0  0  0  0  0  0  0999 V2000
    3.0000   -2.5981    0.0000 C   0  0  0  0  0  0  0  0  0  0  0  0
    1.5000   -2.5981    0.0000 N   0  0  0  0  0  0  0  0  0  0  0  0
    0.7500   -1.2990    0.0000 C   0  0  0  0  0  0  0  0  0  0  0  0
    1.5000    0.0000    0.0000 C   0  0  0  0  0  0  0  0  0  0  0  0
    0.7500    1.2990    0.0000 C   0  0  0  0  0  0  0  0  0  0  0  0
   -0.7500    1.2990    0.0000 C   0  0  0  0  0  0  0  0  0  0  0  0
   -1.5000    2.5981    0.0000 F   0  0  0  0  0  0  0  0  0  0  0  0
   -1.5000    0.0000    0.0000 C   0  0  0  0  0  0  0  0  0  0  0  0
   -0.7500   -1.2990    0.0000 C   0  0  0  0  0  0  0  0  0  0  0  0
   -1.5000   -2.5981    0.0000 C   0  0  0  0  0  0  0  0  0  0  0  0
   -3.0000   -2.5981    0.0000 O   0  0  0  0  0  0  0  0  0  0  0  0
   -0.7500   -3.8971    0.0000 N   0  0  0  0  0  0  0  0  0  0  0  0
   -1.5000   -5.1962    0.0000 C   0  0  0  0  0  0  0  0  0  0  0  0
   -0.7500   -6.4952    0.0000 C   0  0  0  0  0  0  0  0  0  0  0  0
    0.7500   -6.4952    0.0000 C   0  0  0  0  0  0  0  0  0  0  0  0
    1.5000   -5.1962    0.0000 C   0  0  0  0  0  0  0  0  0  0  0  0
    2.9672   -5.5080    0.0000 N   0  0  0  0  0  0  0  0  0  0  0  0
    3.1240   -6.9998    0.0000 C   0  0  0  0  0  0  0  0  0  0  0  0
    4.3375   -7.8815    0.0000 C   0  0  0  0  0  0  0  0  0  0  0  0
    4.1807   -9.3733    0.0000 C   0  0  0  0  0  0  0  0  0  0  0  0
    2.8104   -9.9834    0.0000 C   0  0  0  0  0  0  0  0  0  0  0  0
    2.6536  -11.4752    0.0000 O   0  0  0  0  0  0  0  0  0  0  0  0
    1.2833  -12.0853    0.0000 C   0  0  0  0  0  0  0  0  0  0  0  0
    1.1265  -13.5770    0.0000 C   0  0  0  0  0  0  0  0  0  0  0  0
   -0.2438  -14.1871    0.0000 C   0  0  0  0  0  0  0  0  0  0  0  0
   -0.4006  -15.6789    0.0000 C   0  0  0  0  0  0  0  0  0  0  0  0
    0.8129  -16.5606    0.0000 C   0  0  0  0  0  0  0  0  0  0  0  0
    0.6561  -18.0524    0.0000 C   0  0  0  0  0  0  0  0  0  0  0  0
   -0.7142  -18.6625    0.0000 C   0  0  0  0  0  0  0  0  0  0  0  0
   -0.8710  -20.1543    0.0000 C   0  0  0  0  0  0  0  0  0  0  0  0
    0.3426  -21.0360    0.0000 O   0  0  0  0  0  0  0  0  0  0  0  0
   -2.2413  -20.7644    0.0000 N   0  0  0  0  0  0  0  0  0  0  0  0
   -2.3981  -22.2562    0.0000 O   0  0  0  0  0  0  0  0  0  0  0  0
    2.1833  -15.9505    0.0000 C   0  0  0  0  0  0  0  0  0  0  0  0
    2.3401  -14.4587    0.0000 C   0  0  0  0  0  0  0  0  0  0  0  0
    1.5969   -9.1017    0.0000 C   0  0  0  0  0  0  0  0  0  0  0  0
    1.7537   -7.6099    0.0000 C   0  0  0  0  0  0  0  0  0  0  0  0
    0.7500   -3.8971    0.0000 C   0  0  0  0  0  0  0  0  0  0  0  0
  1  2  1  0
  2  3  1  0
  3  4  2  0
  4  5  1  0
  5  6  2  0
  6  7  1  0
  6  8  1  0
  8  9  2  0
  9 10  1  0
 10 11  2  0
 10 12  1  0
 12 13  1  0
 13 14  1  0
 14 15  1  0
 15 16  2  0
 16 17  1  0
 17 18  1  0
 18 19  2  0
 19 20  1  0
 20 21  2  0
 21 22  1  0
 22 23  1  0
 23 24  1  0
 24 25  2  0
 25 26  1  0
 26 27  2  0
 27 28  1  0
 28 29  2  3
 29 30  1  0
 30 31  2  0
 30 32  1  0
 32 33  1  0
 27 34  1  0
 34 35  2  0
 21 36  1  0
 36 37  2  0
 16 38  1  0
 38  2  1  0
  9  3  1  0
 38 12  1  0
 37 15  1  0
 37 18  1  0
 35 24  1  0
M  END
>  <molecule_chembl_id>  (854) 
CHEMBL5073322

>  <canonical_smiles>  (854) 
CN1c2ccc(F)cc2C(=O)N2CCc3c([nH]c4ccc(OCc5ccc(C=CC(=O)NO)cc5)cc34)C21

>  <pchembl_value_mean>  (854) 
6.85

>  <document_chembl_id>  (854) 
CHEMBL5046291

$$$$

     RDKit          2D

 48 53  0  0  0  0  0  0  0  0999 V2000
   -9.4590    4.8414    0.0000 C   0  0  0  0  0  0  0  0  0  0  0  0
   -8.0325    5.3050    0.0000 O   0  0  0  0  0  0  0  0  0  0  0  0
   -6.9177    4.3013    0.0000 C   0  0  0  0  0  0  0  0  0  0  0  0
   -5.4912    4.7648    0.0000 C   0  0  0  0  0  0  0  0  0  0  0  0
   -4.3764    3.7611    0.0000 C   0  0  0  0  0  0  0  0  0  0  0  0
   -2.9499    4.2246    0.0000 C   0  0  0  0  0  0  0  0  0  0  0  0
   -1.8351    3.2209    0.0000 C   0  0  0  0  0  0  0  0  0  0  0  0
   -2.1470    1.7537    0.0000 C   0  0  0  0  0  0  0  0  0  0  0  0
   -1.0323    0.7500    0.0000 C   0  0  0  0  0  0  0  0  0  0  0  0
    0.3943    1.2135    0.0000 C   0  0  0  0  0  0  0  0  0  0  0  0
    0.7062    2.6807    0.0000 C   0  0  0  0  0  0  0  0  0  0  0  0
   -0.4086    3.6844    0.0000 C   0  0  0  0  0  0  0  0  0  0  0  0
   -0.0967    5.1517    0.0000 C   0  0  0  0  0  0  0  0  0  0  0  0
    1.3299    5.6152    0.0000 N   0  0  0  0  0  0  0  0  0  0  0  0
    2.4446    4.6115    0.0000 C   0  0  0  0  0  0  0  0  0  0  0  0
    2.1328    3.1443    0.0000 C   0  0  0  0  0  0  0  0  0  0  0  0
    3.2475    2.1406    0.0000 C   0  0  0  0  0  0  0  0  0  0  0  0
    4.6741    2.6041    0.0000 C   0  0  0  0  0  0  0  0  0  0  0  0
    5.7888    1.6004    0.0000 N   0  0  0  0  0  0  0  0  0  0  0  0
    5.4769    0.1332    0.0000 C   0  0  0  0  0  0  0  0  0  0  0  0
    4.0503   -0.3303    0.0000 O   0  0  0  0  0  0  0  0  0  0  0  0
    6.5916   -0.8705    0.0000 C   0  0  0  0  0  0  0  0  0  0  0  0
    6.2798   -2.3377    0.0000 C   0  0  0  0  0  0  0  0  0  0  0  0
    7.3945   -3.3414    0.0000 C   0  0  0  0  0  0  0  0  0  0  0  0
    7.0826   -4.8086    0.0000 C   0  0  0  0  0  0  0  0  0  0  0  0
    8.1973   -5.8123    0.0000 C   0  0  0  0  0  0  0  0  0  0  0  0
    7.8855   -7.2796    0.0000 C   0  0  0  0  0  0  0  0  0  0  0  0
    9.0002   -8.2833    0.0000 C   0  0  0  0  0  0  0  0  0  0  0  0
   10.4268   -7.8197    0.0000 O   0  0  0  0  0  0  0  0  0  0  0  0
    8.6883   -9.7505    0.0000 N   0  0  0  0  0  0  0  0  0  0  0  0
    9.8030  -10.7542    0.0000 O   0  0  0  0  0  0  0  0  0  0  0  0
    4.9859    4.0713    0.0000 C   0  0  0  0  0  0  0  0  0  0  0  0
    3.8712    5.0750    0.0000 C   0  0  0  0  0  0  0  0  0  0  0  0
   -1.2114    6.1554    0.0000 C   0  0  0  0  0  0  0  0  0  0  0  0
   -1.2114    7.6554    0.0000 C   0  0  0  0  0  0  0  0  0  0  0  0
   -2.6380    8.1189    0.0000 O   0  0  0  0  0  0  0  0  0  0  0  0
   -3.5197    6.9054    0.0000 C   0  0  0  0  0  0  0  0  0  0  0  0
   -5.0197    6.9054    0.0000 O   0  0  0  0  0  0  0  0  0  0  0  0
   -2.6380    5.6918    0.0000 C   0  0  0  0  0  0  0  0  0  0  0  0
    1.2760    0.0000    0.0000 O   0  0  0  0  0  0  0  0  0  0  0  0
    0.3943   -1.2135    0.0000 C   0  0  0  0  0  0  0  0  0  0  0  0
   -1.0323   -0.7500    0.0000 O   0  0  0  0  0  0  0  0  0  0  0  0
   -4.6883    2.2939    0.0000 C   0  0  0  0  0  0  0  0  0  0  0  0
   -6.1149    1.8303    0.0000 C   0  0  0  0  0  0  0  0  0  0  0  0
   -6.4268    0.3631    0.0000 O   0  0  0  0  0  0  0  0  0  0  0  0
   -7.8533   -0.1004    0.0000 C   0  0  0  0  0  0  0  0  0  0  0  0
   -7.2296    2.8340    0.0000 C   0  0  0  0  0  0  0  0  0  0  0  0
   -8.6562    2.3705    0.0000 O   0  0  0  0  0  0  0  0  0  0  0  0
  1  2  1  0
  2  3  1  0
  3  4  2  0
  4  5  1  0
  5  6  1  0
  6  7  1  0
  7  8  2  0
  8  9  1  0
  9 10  2  0
 10 11  1  0
 11 12  2  0
 12 13  1  0
 13 14  1  0
 14 15  1  0
 15 16  2  0
 16 17  1  0
 17 18  2  0
 18 19  1  0
 19 20  1  0
 20 21  2  0
 20 22  1  0
 22 23  1  0
 23 24  1  0
 24 25  1  0
 25 26  1  0
 26 27  1  0
 27 28  1  0
 28 29  2  0
 28 30  1  0
 30 31  1  0
 18 32  1  0
 32 33  2  0
 13 34  1  0
 34 35  1  0
 35 36  1  0
 36 37  1  0
 37 38  2  0
 37 39  1  0
 10 40  1  0
 40 41  1  0
 41 42  1  0
  5 43  2  0
 43 44  1  0
 44 45  1  0
 45 46  1  0
 44 47  2  0
 47 48  1  0
 47  3  1  0
 39  6  1  0
 12  7  1  0
 33 15  1  0
 39 34  1  0
 42  9  1  0
M  END
>  <molecule_chembl_id>  (855) 
CHEMBL2442698

>  <canonical_smiles>  (855) 
COc1cc(C2c3cc4c(cc3C(Nc3ccc(NC(=O)CCCCCCC(=O)NO)cc3)C3COC(=O)C23)OCO4)cc(OC)c1O

>  <pchembl_value_mean>  (855) 
6.85

>  <document_chembl_id>  (855) 
CHEMBL2439983

$$$$

     RDKit          2D

 28 29  0  0  0  0  0  0  0  0999 V2000
   12.0000   -5.1962    0.0000 C   0  0  0  0  0  0  0  0  0  0  0  0
   10.5000   -5.1962    0.0000 C   0  0  0  0  0  0  0  0  0  0  0  0
    9.7500   -3.8971    0.0000 C   0  0  0  0  0  0  0  0  0  0  0  0
    8.2500   -3.8971    0.0000 C   0  0  0  0  0  0  0  0  0  0  0  0
    7.5000   -2.5981    0.0000 C   0  0  0  0  0  0  0  0  0  0  0  0
    6.0000   -2.5981    0.0000 C   0  0  0  0  0  0  0  0  0  0  0  0
    5.2500   -1.2990    0.0000 N   0  0  0  0  0  0  0  0  0  0  0  0
    3.7500   -1.2990    0.0000 N   0  0  0  0  0  0  0  0  0  0  0  0
    3.0000    0.0000    0.0000 C   0  0  0  0  0  0  0  0  0  0  0  0
    3.7500    1.2990    0.0000 O   0  0  0  0  0  0  0  0  0  0  0  0
    1.5000    0.0000    0.0000 C   0  0  0  0  0  0  0  0  0  0  0  0
    0.7500   -1.2990    0.0000 C   0  0  0  0  0  0  0  0  0  0  0  0
   -0.7500   -1.2990    0.0000 C   0  0  0  0  0  0  0  0  0  0  0  0
   -1.5000    0.0000    0.0000 C   0  0  0  0  0  0  0  0  0  0  0  0
   -3.0000    0.0000    0.0000 C   0  0  0  0  0  0  0  0  0  0  0  0
   -3.7500    1.2990    0.0000 N   0  0  0  0  0  0  0  0  0  0  0  0
   -5.2500    1.2990    0.0000 C   0  0  0  0  0  0  0  0  0  0  0  0
   -6.0000    0.0000    0.0000 O   0  0  0  0  0  0  0  0  0  0  0  0
   -6.0000    2.5981    0.0000 C   0  0  0  0  0  0  0  0  0  0  0  0
   -7.5000    2.5981    0.0000 C   0  0  0  0  0  0  0  0  0  0  0  0
   -8.2500    3.8971    0.0000 C   0  0  0  0  0  0  0  0  0  0  0  0
   -7.5000    5.1962    0.0000 C   0  0  0  0  0  0  0  0  0  0  0  0
   -8.2500    6.4952    0.0000 C   0  0  0  0  0  0  0  0  0  0  0  0
   -9.7500    6.4952    0.0000 C   0  0  0  0  0  0  0  0  0  0  0  0
  -10.5000    5.1962    0.0000 C   0  0  0  0  0  0  0  0  0  0  0  0
   -9.7500    3.8971    0.0000 C   0  0  0  0  0  0  0  0  0  0  0  0
   -0.7500    1.2990    0.0000 C   0  0  0  0  0  0  0  0  0  0  0  0
    0.7500    1.2990    0.0000 C   0  0  0  0  0  0  0  0  0  0  0  0
  1  2  1  0
  2  3  1  0
  3  4  1  0
  4  5  1  0
  5  6  1  0
  6  7  1  0
  7  8  1  0
  8  9  1  0
  9 10  2  0
  9 11  1  0
 11 12  2  0
 12 13  1  0
 13 14  2  0
 14 15  1  0
 15 16  1  0
 16 17  1  0
 17 18  2  0
 17 19  1  0
 19 20  2  3
 20 21  1  0
 21 22  2  0
 22 23  1  0
 23 24  2  0
 24 25  1  0
 25 26  2  0
 14 27  1  0
 27 28  2  0
 28 11  1  0
 26 21  1  0
M  END
>  <molecule_chembl_id>  (856) 
CHEMBL4781501

>  <canonical_smiles>  (856) 
CCCCCCNNC(=O)c1ccc(CNC(=O)C=Cc2ccccc2)cc1

>  <pchembl_value_mean>  (856) 
6.86

>  <document_chembl_id>  (856) 
CHEMBL4680089

$$$$

     RDKit          2D

 18 19  0  0  0  0  0  0  0  0999 V2000
   -1.2064  -10.6676    0.0000 C   0  0  0  0  0  0  0  0  0  0  0  0
   -1.0496   -9.1759    0.0000 C   0  0  0  0  0  0  0  0  0  0  0  0
   -2.2631   -8.2942    0.0000 N   0  0  0  0  0  0  0  0  0  0  0  0
    0.3207   -8.5658    0.0000 C   0  0  0  0  0  0  0  0  0  0  0  0
    1.5342   -9.4474    0.0000 O   0  0  0  0  0  0  0  0  0  0  0  0
    0.4775   -7.0740    0.0000 N   0  0  0  0  0  0  0  0  0  0  0  0
    1.8478   -6.4639    0.0000 C   0  0  0  0  0  0  0  0  0  0  0  0
    2.0046   -4.9721    0.0000 C   0  0  0  0  0  0  0  0  0  0  0  0
    3.3037   -4.2221    0.0000 N   0  0  0  0  0  0  0  0  0  0  0  0
    2.9918   -2.7549    0.0000 N   0  0  0  0  0  0  0  0  0  0  0  0
    1.5000   -2.5981    0.0000 C   0  0  0  0  0  0  0  0  0  0  0  0
    0.7500   -1.2990    0.0000 C   0  0  0  0  0  0  0  0  0  0  0  0
    1.5000    0.0000    0.0000 C   0  0  0  0  0  0  0  0  0  0  0  0
    0.7500    1.2990    0.0000 C   0  0  0  0  0  0  0  0  0  0  0  0
   -0.7500    1.2990    0.0000 C   0  0  0  0  0  0  0  0  0  0  0  0
   -1.5000    0.0000    0.0000 C   0  0  0  0  0  0  0  0  0  0  0  0
   -0.7500   -1.2990    0.0000 C   0  0  0  0  0  0  0  0  0  0  0  0
    0.8899   -3.9684    0.0000 O   0  0  0  0  0  0  0  0  0  0  0  0
  1  2  1  0
  2  3  1  0
  2  4  1  0
  4  5  2  0
  4  6  1  0
  6  7  1  0
  7  8  1  0
  8  9  2  0
  9 10  1  0
 10 11  2  0
 11 12  1  0
 12 13  2  0
 13 14  1  0
 14 15  2  0
 15 16  1  0
 16 17  2  0
 11 18  1  0
 18  8  1  0
 17 12  1  0
M  END
>  <molecule_chembl_id>  (857) 
CHEMBL3930237

>  <canonical_smiles>  (857) 
CC(N)C(=O)NCc1nnc(-c2ccccc2)o1

>  <pchembl_value_mean>  (857) 
6.87

>  <document_chembl_id>  (857) 
CHEMBL3860079

$$$$

     RDKit          2D

 26 29  0  0  0  0  0  0  0  0999 V2000
   -0.9605    8.9357    0.0000 C   0  0  0  0  0  0  0  0  0  0  0  0
   -0.3504    7.5654    0.0000 C   0  0  0  0  0  0  0  0  0  0  0  0
   -1.1004    6.2664    0.0000 C   0  0  0  0  0  0  0  0  0  0  0  0
   -0.0967    5.1517    0.0000 C   0  0  0  0  0  0  0  0  0  0  0  0
   -0.4086    3.6844    0.0000 C   0  0  0  0  0  0  0  0  0  0  0  0
   -1.8351    3.2209    0.0000 C   0  0  0  0  0  0  0  0  0  0  0  0
   -2.1470    1.7537    0.0000 C   0  0  0  0  0  0  0  0  0  0  0  0
   -1.0323    0.7500    0.0000 C   0  0  0  0  0  0  0  0  0  0  0  0
    0.3943    1.2135    0.0000 C   0  0  0  0  0  0  0  0  0  0  0  0
    0.7062    2.6807    0.0000 C   0  0  0  0  0  0  0  0  0  0  0  0
    1.2760    0.0000    0.0000 O   0  0  0  0  0  0  0  0  0  0  0  0
    0.3943   -1.2135    0.0000 C   0  0  0  0  0  0  0  0  0  0  0  0
   -1.0323   -0.7500    0.0000 O   0  0  0  0  0  0  0  0  0  0  0  0
    1.2736    5.7618    0.0000 N   0  0  0  0  0  0  0  0  0  0  0  0
    2.5727    5.0118    0.0000 C   0  0  0  0  0  0  0  0  0  0  0  0
    3.8717    5.7618    0.0000 C   0  0  0  0  0  0  0  0  0  0  0  0
    5.1707    5.0118    0.0000 C   0  0  0  0  0  0  0  0  0  0  0  0
    6.4698    5.7618    0.0000 C   0  0  0  0  0  0  0  0  0  0  0  0
    6.4698    7.2618    0.0000 C   0  0  0  0  0  0  0  0  0  0  0  0
    7.7688    8.0118    0.0000 C   0  0  0  0  0  0  0  0  0  0  0  0
    7.7688    9.5118    0.0000 O   0  0  0  0  0  0  0  0  0  0  0  0
    9.0679    7.2618    0.0000 N   0  0  0  0  0  0  0  0  0  0  0  0
   10.3669    8.0118    0.0000 O   0  0  0  0  0  0  0  0  0  0  0  0
    5.1707    8.0118    0.0000 C   0  0  0  0  0  0  0  0  0  0  0  0
    3.8717    7.2618    0.0000 C   0  0  0  0  0  0  0  0  0  0  0  0
    1.1168    7.2536    0.0000 N   0  0  0  0  0  0  0  0  0  0  0  0
  1  2  1  0
  2  3  1  0
  3  4  2  0
  4  5  1  0
  5  6  2  0
  6  7  1  0
  7  8  2  0
  8  9  1  0
  9 10  2  0
  9 11  1  0
 11 12  1  0
 12 13  1  0
  4 14  1  0
 14 15  1  0
 15 16  1  0
 16 17  2  0
 17 18  1  0
 18 19  2  0
 19 20  1  0
 20 21  2  0
 20 22  1  0
 22 23  1  0
 19 24  1  0
 24 25  2  0
 14 26  1  0
 26  2  2  0
 10  5  1  0
 25 16  1  0
 13  8  1  0
M  END
>  <molecule_chembl_id>  (858) 
CHEMBL4225495

>  <canonical_smiles>  (858) 
Cc1cc(-c2ccc3c(c2)OCO3)n(Cc2ccc(C(=O)NO)cc2)n1

>  <pchembl_value_mean>  (858) 
6.87

>  <document_chembl_id>  (858) 
CHEMBL4219109

$$$$

     RDKit          2D

 32 35  0  0  0  0  0  0  0  0999 V2000
   -0.5864  -10.4561    0.0000 C   0  0  0  0  0  0  0  0  0  0  0  0
    0.6272   -9.5744    0.0000 C   0  0  0  0  0  0  0  0  0  0  0  0
    0.4704   -8.0826    0.0000 C   0  0  0  0  0  0  0  0  0  0  0  0
    1.6839   -7.2010    0.0000 C   0  0  0  0  0  0  0  0  0  0  0  0
    1.5271   -5.7092    0.0000 C   0  0  0  0  0  0  0  0  0  0  0  0
    0.1568   -5.0991    0.0000 N   0  0  0  0  0  0  0  0  0  0  0  0
   -0.0000   -3.6073    0.0000 C   0  0  0  0  0  0  0  0  0  0  0  0
   -1.2135   -2.7256    0.0000 S   0  0  0  0  0  0  0  0  0  0  0  0
   -0.7500   -1.2990    0.0000 C   0  0  0  0  0  0  0  0  0  0  0  0
    0.7500   -1.2990    0.0000 C   0  0  0  0  0  0  0  0  0  0  0  0
    1.2135   -2.7256    0.0000 C   0  0  0  0  0  0  0  0  0  0  0  0
    2.5838   -3.3357    0.0000 C   0  0  0  0  0  0  0  0  0  0  0  0
    3.7974   -2.4540    0.0000 O   0  0  0  0  0  0  0  0  0  0  0  0
    2.7406   -4.8275    0.0000 N   0  0  0  0  0  0  0  0  0  0  0  0
    1.5000    0.0000    0.0000 C   0  0  0  0  0  0  0  0  0  0  0  0
    0.7500    1.2990    0.0000 C   0  0  0  0  0  0  0  0  0  0  0  0
   -0.7500    1.2990    0.0000 N   0  0  0  0  0  0  0  0  0  0  0  0
   -1.5000    2.5981    0.0000 C   0  0  0  0  0  0  0  0  0  0  0  0
   -0.7500    3.8971    0.0000 C   0  0  0  0  0  0  0  0  0  0  0  0
   -1.5000    5.1962    0.0000 C   0  0  0  0  0  0  0  0  0  0  0  0
   -0.7500    6.4952    0.0000 C   0  0  0  0  0  0  0  0  0  0  0  0
   -1.5000    7.7942    0.0000 C   0  0  0  0  0  0  0  0  0  0  0  0
   -0.7500    9.0933    0.0000 C   0  0  0  0  0  0  0  0  0  0  0  0
    0.7500    9.0933    0.0000 O   0  0  0  0  0  0  0  0  0  0  0  0
   -1.5000   10.3923    0.0000 N   0  0  0  0  0  0  0  0  0  0  0  0
   -0.7500   11.6913    0.0000 O   0  0  0  0  0  0  0  0  0  0  0  0
   -1.5000    0.0000    0.0000 C   0  0  0  0  0  0  0  0  0  0  0  0
    3.0542   -7.8111    0.0000 C   0  0  0  0  0  0  0  0  0  0  0  0
    3.2110   -9.3029    0.0000 C   0  0  0  0  0  0  0  0  0  0  0  0
    4.5813   -9.9130    0.0000 C   0  0  0  0  0  0  0  0  0  0  0  0
    1.9975  -10.1845    0.0000 C   0  0  0  0  0  0  0  0  0  0  0  0
    2.1543  -11.6763    0.0000 O   0  0  0  0  0  0  0  0  0  0  0  0
  1  2  1  0
  2  3  2  0
  3  4  1  0
  4  5  1  0
  5  6  2  0
  6  7  1  0
  7  8  1  0
  8  9  1  0
  9 10  2  0
 10 11  1  0
 11 12  1  0
 12 13  2  0
 12 14  1  0
 10 15  1  0
 15 16  1  0
 16 17  1  0
 17 18  1  0
 18 19  1  0
 19 20  1  0
 20 21  1  0
 21 22  1  0
 22 23  1  0
 23 24  2  0
 23 25  1  0
 25 26  1  0
 17 27  1  0
  4 28  2  0
 28 29  1  0
 29 30  1  0
 29 31  2  0
 31 32  1  0
 31  2  1  0
 14  5  1  0
 11  7  2  0
 27  9  1  0
M  END
>  <molecule_chembl_id>  (859) 
CHEMBL4548542

>  <canonical_smiles>  (859) 
Cc1cc(-c2nc3sc4c(c3c(=O)[nH]2)CCN(CCCCCC(=O)NO)C4)cc(C)c1O

>  <pchembl_value_mean>  (859) 
6.87

>  <document_chembl_id>  (859) 
CHEMBL4342471

$$$$

     RDKit          2D

 30 33  0  0  0  0  0  0  0  0999 V2000
   -0.8980   -7.8928    0.0000 C   0  0  0  0  0  0  0  0  0  0  0  0
    0.5692   -8.2047    0.0000 C   0  0  0  0  0  0  0  0  0  0  0  0
    1.1793   -9.5750    0.0000 N   0  0  0  0  0  0  0  0  0  0  0  0
    2.6711   -9.4182    0.0000 O   0  0  0  0  0  0  0  0  0  0  0  0
    2.9829   -7.9510    0.0000 C   0  0  0  0  0  0  0  0  0  0  0  0
    4.3533   -7.3409    0.0000 C   0  0  0  0  0  0  0  0  0  0  0  0
    1.6839   -7.2010    0.0000 C   0  0  0  0  0  0  0  0  0  0  0  0
    1.5271   -5.7092    0.0000 C   0  0  0  0  0  0  0  0  0  0  0  0
    0.1568   -5.0991    0.0000 N   0  0  0  0  0  0  0  0  0  0  0  0
   -0.0000   -3.6073    0.0000 C   0  0  0  0  0  0  0  0  0  0  0  0
   -1.2135   -2.7256    0.0000 S   0  0  0  0  0  0  0  0  0  0  0  0
   -0.7500   -1.2990    0.0000 C   0  0  0  0  0  0  0  0  0  0  0  0
    0.7500   -1.2990    0.0000 C   0  0  0  0  0  0  0  0  0  0  0  0
    1.2135   -2.7256    0.0000 C   0  0  0  0  0  0  0  0  0  0  0  0
    2.5838   -3.3357    0.0000 C   0  0  0  0  0  0  0  0  0  0  0  0
    3.7974   -2.4540    0.0000 O   0  0  0  0  0  0  0  0  0  0  0  0
    2.7406   -4.8275    0.0000 N   0  0  0  0  0  0  0  0  0  0  0  0
    1.5000    0.0000    0.0000 C   0  0  0  0  0  0  0  0  0  0  0  0
    0.7500    1.2990    0.0000 C   0  0  0  0  0  0  0  0  0  0  0  0
   -0.7500    1.2990    0.0000 N   0  0  0  0  0  0  0  0  0  0  0  0
   -1.5000    2.5981    0.0000 C   0  0  0  0  0  0  0  0  0  0  0  0
   -0.7500    3.8971    0.0000 C   0  0  0  0  0  0  0  0  0  0  0  0
   -1.5000    5.1962    0.0000 C   0  0  0  0  0  0  0  0  0  0  0  0
   -0.7500    6.4952    0.0000 C   0  0  0  0  0  0  0  0  0  0  0  0
   -1.5000    7.7942    0.0000 C   0  0  0  0  0  0  0  0  0  0  0  0
   -0.7500    9.0933    0.0000 C   0  0  0  0  0  0  0  0  0  0  0  0
    0.7500    9.0933    0.0000 O   0  0  0  0  0  0  0  0  0  0  0  0
   -1.5000   10.3923    0.0000 N   0  0  0  0  0  0  0  0  0  0  0  0
   -0.7500   11.6913    0.0000 O   0  0  0  0  0  0  0  0  0  0  0  0
   -1.5000    0.0000    0.0000 C   0  0  0  0  0  0  0  0  0  0  0  0
  1  2  1  0
  2  3  2  0
  3  4  1  0
  4  5  1  0
  5  6  1  0
  5  7  2  0
  7  8  1  0
  8  9  2  0
  9 10  1  0
 10 11  1  0
 11 12  1  0
 12 13  2  0
 13 14  1  0
 14 15  1  0
 15 16  2  0
 15 17  1  0
 13 18  1  0
 18 19  1  0
 19 20  1  0
 20 21  1  0
 21 22  1  0
 22 23  1  0
 23 24  1  0
 24 25  1  0
 25 26  1  0
 26 27  2  0
 26 28  1  0
 28 29  1  0
 20 30  1  0
  7  2  1  0
 17  8  1  0
 14 10  2  0
 30 12  1  0
M  END
>  <molecule_chembl_id>  (860) 
CHEMBL4530039

>  <canonical_smiles>  (860) 
Cc1noc(C)c1-c1nc2sc3c(c2c(=O)[nH]1)CCN(CCCCCC(=O)NO)C3

>  <pchembl_value_mean>  (860) 
6.87

>  <document_chembl_id>  (860) 
CHEMBL4342471

$$$$

     RDKit          2D

 28 30  0  0  0  0  0  0  0  0999 V2000
   -7.5000   -5.1962    0.0000 O   0  0  0  0  0  0  0  0  0  0  0  0
   -6.0000   -5.1962    0.0000 C   0  0  0  0  0  0  0  0  0  0  0  0
   -5.2500   -6.4952    0.0000 N   0  0  0  0  0  0  0  0  0  0  0  0
   -6.0000   -7.7942    0.0000 O   0  0  0  0  0  0  0  0  0  0  0  0
   -5.2500   -3.8971    0.0000 C   0  0  0  0  0  0  0  0  0  0  0  0
   -3.7500   -3.8971    0.0000 C   0  0  0  0  0  0  0  0  0  0  0  0
   -3.0000   -2.5981    0.0000 N   0  0  0  0  0  0  0  0  0  0  0  0
   -3.7500   -1.2990    0.0000 C   0  0  0  0  0  0  0  0  0  0  0  0
   -3.0000    0.0000    0.0000 N   0  0  0  0  0  0  0  0  0  0  0  0
   -3.7500    1.2990    0.0000 C   0  0  0  0  0  0  0  0  0  0  0  0
   -2.6009    2.2632    0.0000 C   0  0  0  0  0  0  0  0  0  0  0  0
   -1.1914    1.7502    0.0000 C   0  0  0  0  0  0  0  0  0  0  0  0
   -0.0423    2.7144    0.0000 C   0  0  0  0  0  0  0  0  0  0  0  0
    1.3672    2.2013    0.0000 C   0  0  0  0  0  0  0  0  0  0  0  0
    2.7768    1.6883    0.0000 F   0  0  0  0  0  0  0  0  0  0  0  0
    1.8802    3.6109    0.0000 F   0  0  0  0  0  0  0  0  0  0  0  0
    0.8542    0.7918    0.0000 F   0  0  0  0  0  0  0  0  0  0  0  0
   -0.3028    4.1916    0.0000 C   0  0  0  0  0  0  0  0  0  0  0  0
   -1.7123    4.7046    0.0000 C   0  0  0  0  0  0  0  0  0  0  0  0
   -1.9728    6.1818    0.0000 C   0  0  0  0  0  0  0  0  0  0  0  0
   -2.2333    7.6590    0.0000 F   0  0  0  0  0  0  0  0  0  0  0  0
   -0.4956    6.4423    0.0000 F   0  0  0  0  0  0  0  0  0  0  0  0
   -3.4500    5.9214    0.0000 F   0  0  0  0  0  0  0  0  0  0  0  0
   -2.8614    3.7404    0.0000 C   0  0  0  0  0  0  0  0  0  0  0  0
   -4.8991    2.2632    0.0000 C   0  0  0  0  0  0  0  0  0  0  0  0
   -5.1595    0.7860    0.0000 C   0  0  0  0  0  0  0  0  0  0  0  0
   -5.2500   -1.2990    0.0000 N   0  0  0  0  0  0  0  0  0  0  0  0
   -6.0000   -2.5981    0.0000 C   0  0  0  0  0  0  0  0  0  0  0  0
  1  2  2  0
  2  3  1  0
  3  4  1  0
  2  5  1  0
  5  6  2  0
  6  7  1  0
  7  8  2  0
  8  9  1  0
  9 10  1  0
 10 11  1  0
 11 12  2  0
 12 13  1  0
 13 14  1  0
 14 15  1  0
 14 16  1  0
 14 17  1  0
 13 18  2  0
 18 19  1  0
 19 20  1  0
 20 21  1  0
 20 22  1  0
 20 23  1  0
 19 24  2  0
 10 25  1  0
 25 26  1  0
  8 27  1  0
 27 28  2  0
 28  5  1  0
 26 10  1  0
 24 11  1  0
M  END
>  <molecule_chembl_id>  (861) 
CHEMBL3656014

>  <canonical_smiles>  (861) 
O=C(NO)c1cnc(NC2(c3cc(C(F)(F)F)cc(C(F)(F)F)c3)CC2)nc1

>  <pchembl_value_mean>  (861) 
6.87

>  <document_chembl_id>  (861) 
CHEMBL3639071

$$$$

     RDKit          2D

 29 32  0  0  0  0  0  0  0  0999 V2000
    3.0000    0.0000    0.0000 N   0  0  0  0  0  0  0  0  0  0  0  0
    1.5000    0.0000    0.0000 C   0  0  0  0  0  0  0  0  0  0  0  0
    0.7500   -1.2990    0.0000 C   0  0  0  0  0  0  0  0  0  0  0  0
   -0.7500   -1.2990    0.0000 C   0  0  0  0  0  0  0  0  0  0  0  0
   -1.5000    0.0000    0.0000 C   0  0  0  0  0  0  0  0  0  0  0  0
   -0.7500    1.2990    0.0000 C   0  0  0  0  0  0  0  0  0  0  0  0
    0.7500    1.2990    0.0000 C   0  0  0  0  0  0  0  0  0  0  0  0
    1.5000    2.5981    0.0000 N   0  0  0  0  0  0  0  0  0  0  0  0
    0.7500    3.8971    0.0000 C   0  0  0  0  0  0  0  0  0  0  0  0
   -0.7500    3.8971    0.0000 O   0  0  0  0  0  0  0  0  0  0  0  0
    1.5000    5.1962    0.0000 C   0  0  0  0  0  0  0  0  0  0  0  0
    3.0000    5.1962    0.0000 C   0  0  0  0  0  0  0  0  0  0  0  0
    3.7500    6.4952    0.0000 C   0  0  0  0  0  0  0  0  0  0  0  0
    3.0000    7.7942    0.0000 C   0  0  0  0  0  0  0  0  0  0  0  0
    3.7500    9.0933    0.0000 C   0  0  0  0  0  0  0  0  0  0  0  0
    5.2500    9.0933    0.0000 N   0  0  0  0  0  0  0  0  0  0  0  0
    6.0000   10.3923    0.0000 C   0  0  0  0  0  0  0  0  0  0  0  0
    5.3899   11.7626    0.0000 N   0  0  0  0  0  0  0  0  0  0  0  0
    6.5046   12.7663    0.0000 C   0  0  0  0  0  0  0  0  0  0  0  0
    7.8037   12.0163    0.0000 C   0  0  0  0  0  0  0  0  0  0  0  0
    9.1740   12.6264    0.0000 C   0  0  0  0  0  0  0  0  0  0  0  0
   10.3875   11.7447    0.0000 C   0  0  0  0  0  0  0  0  0  0  0  0
   11.7578   12.3549    0.0000 C   0  0  0  0  0  0  0  0  0  0  0  0
   11.9146   13.8466    0.0000 C   0  0  0  0  0  0  0  0  0  0  0  0
   10.7011   14.7283    0.0000 C   0  0  0  0  0  0  0  0  0  0  0  0
    9.3308   14.1182    0.0000 C   0  0  0  0  0  0  0  0  0  0  0  0
    7.4918   10.5491    0.0000 O   0  0  0  0  0  0  0  0  0  0  0  0
    1.5000    7.7942    0.0000 C   0  0  0  0  0  0  0  0  0  0  0  0
    0.7500    6.4952    0.0000 C   0  0  0  0  0  0  0  0  0  0  0  0
  1  2  1  0
  2  3  2  0
  3  4  1  0
  4  5  2  0
  5  6  1  0
  6  7  2  0
  7  8  1  0
  8  9  1  0
  9 10  2  0
  9 11  1  0
 11 12  2  0
 12 13  1  0
 13 14  2  0
 14 15  1  0
 15 16  1  0
 16 17  1  0
 17 18  2  0
 18 19  1  0
 19 20  1  0
 20 21  1  0
 21 22  2  0
 22 23  1  0
 23 24  2  0
 24 25  1  0
 25 26  2  0
 20 27  1  0
 14 28  1  0
 28 29  2  0
  7  2  1  0
 29 11  1  0
 27 17  1  0
 26 21  1  0
M  END
>  <molecule_chembl_id>  (862) 
CHEMBL3605502

>  <canonical_smiles>  (862) 
Nc1ccccc1NC(=O)c1ccc(CNC2=NCC(c3ccccc3)O2)cc1

>  <pchembl_value_mean>  (862) 
6.875

>  <document_chembl_id>  (862) 
CHEMBL3603817

$$$$

     RDKit          2D

 21 22  0  0  0  0  0  0  0  0999 V2000
   10.4688  -10.2562    0.0000 O   0  0  0  0  0  0  0  0  0  0  0  0
    9.2553  -11.1379    0.0000 C   0  0  0  0  0  0  0  0  0  0  0  0
    7.8850  -10.5278    0.0000 C   0  0  0  0  0  0  0  0  0  0  0  0
    7.7282   -9.0360    0.0000 C   0  0  0  0  0  0  0  0  0  0  0  0
    6.3579   -8.4259    0.0000 C   0  0  0  0  0  0  0  0  0  0  0  0
    6.2011   -6.9341    0.0000 C   0  0  0  0  0  0  0  0  0  0  0  0
    4.8308   -6.3240    0.0000 O   0  0  0  0  0  0  0  0  0  0  0  0
    4.6740   -4.8322    0.0000 C   0  0  0  0  0  0  0  0  0  0  0  0
    3.3037   -4.2221    0.0000 C   0  0  0  0  0  0  0  0  0  0  0  0
    2.9918   -2.7549    0.0000 C   0  0  0  0  0  0  0  0  0  0  0  0
    1.5000   -2.5981    0.0000 C   0  0  0  0  0  0  0  0  0  0  0  0
    0.7500   -1.2990    0.0000 C   0  0  0  0  0  0  0  0  0  0  0  0
    1.5000    0.0000    0.0000 C   0  0  0  0  0  0  0  0  0  0  0  0
    0.7500    1.2990    0.0000 C   0  0  0  0  0  0  0  0  0  0  0  0
   -0.7500    1.2990    0.0000 C   0  0  0  0  0  0  0  0  0  0  0  0
   -1.5000    0.0000    0.0000 C   0  0  0  0  0  0  0  0  0  0  0  0
   -0.7500   -1.2990    0.0000 C   0  0  0  0  0  0  0  0  0  0  0  0
    0.8899   -3.9684    0.0000 O   0  0  0  0  0  0  0  0  0  0  0  0
    2.0046   -4.9721    0.0000 N   0  0  0  0  0  0  0  0  0  0  0  0
    9.4121  -12.6296    0.0000 N   0  0  0  0  0  0  0  0  0  0  0  0
   10.7824  -13.2397    0.0000 O   0  0  0  0  0  0  0  0  0  0  0  0
  1  2  2  0
  2  3  1  0
  3  4  1  0
  4  5  1  0
  5  6  1  0
  6  7  1  0
  7  8  1  0
  8  9  1  0
  9 10  1  0
 10 11  2  0
 11 12  1  0
 12 13  2  0
 13 14  1  0
 14 15  2  0
 15 16  1  0
 16 17  2  0
 11 18  1  0
 18 19  1  0
  2 20  1  0
 20 21  1  0
 19  9  2  0
 17 12  1  0
M  END
>  <molecule_chembl_id>  (863) 
CHEMBL513160

>  <canonical_smiles>  (863) 
O=C(CCCCOCc1cc(-c2ccccc2)on1)NO

>  <pchembl_value_mean>  (863) 
6.88

>  <document_chembl_id>  (863) 
CHEMBL1155917

$$$$

     RDKit          2D

 28 29  0  0  0  0  0  0  0  0999 V2000
    5.2500   -1.2990    0.0000 C   0  0  0  0  0  0  0  0  0  0  0  0
    3.7500   -1.2990    0.0000 C   0  0  0  0  0  0  0  0  0  0  0  0
    3.0000   -2.5981    0.0000 O   0  0  0  0  0  0  0  0  0  0  0  0
    3.0000    0.0000    0.0000 N   0  0  0  0  0  0  0  0  0  0  0  0
    1.5000    0.0000    0.0000 C   0  0  0  0  0  0  0  0  0  0  0  0
    0.7500   -1.2990    0.0000 C   0  0  0  0  0  0  0  0  0  0  0  0
   -0.7500   -1.2990    0.0000 C   0  0  0  0  0  0  0  0  0  0  0  0
   -1.5000    0.0000    0.0000 C   0  0  0  0  0  0  0  0  0  0  0  0
   -3.0000    0.0000    0.0000 C   0  0  0  0  0  0  0  0  0  0  0  0
   -3.8817   -1.2135    0.0000 C   0  0  0  0  0  0  0  0  0  0  0  0
   -5.3083   -0.7500    0.0000 C   0  0  0  0  0  0  0  0  0  0  0  0
   -6.5218   -1.6317    0.0000 C   0  0  0  0  0  0  0  0  0  0  0  0
   -6.3650   -3.1235    0.0000 O   0  0  0  0  0  0  0  0  0  0  0  0
   -7.8921   -1.0216    0.0000 N   0  0  0  0  0  0  0  0  0  0  0  0
   -9.1056   -1.9033    0.0000 C   0  0  0  0  0  0  0  0  0  0  0  0
  -10.4760   -1.2931    0.0000 C   0  0  0  0  0  0  0  0  0  0  0  0
  -11.6895   -2.1748    0.0000 C   0  0  0  0  0  0  0  0  0  0  0  0
  -13.0598   -1.5647    0.0000 C   0  0  0  0  0  0  0  0  0  0  0  0
  -14.2733   -2.4464    0.0000 C   0  0  0  0  0  0  0  0  0  0  0  0
  -15.6436   -1.8363    0.0000 C   0  0  0  0  0  0  0  0  0  0  0  0
  -16.8572   -2.7180    0.0000 C   0  0  0  0  0  0  0  0  0  0  0  0
  -16.7004   -4.2098    0.0000 O   0  0  0  0  0  0  0  0  0  0  0  0
  -18.2275   -2.1079    0.0000 N   0  0  0  0  0  0  0  0  0  0  0  0
  -19.4410   -2.9895    0.0000 O   0  0  0  0  0  0  0  0  0  0  0  0
   -5.3083    0.7500    0.0000 N   0  0  0  0  0  0  0  0  0  0  0  0
   -3.8817    1.2135    0.0000 O   0  0  0  0  0  0  0  0  0  0  0  0
   -0.7500    1.2990    0.0000 C   0  0  0  0  0  0  0  0  0  0  0  0
    0.7500    1.2990    0.0000 C   0  0  0  0  0  0  0  0  0  0  0  0
  1  2  1  0
  2  3  2  0
  2  4  1  0
  4  5  1  0
  5  6  2  0
  6  7  1  0
  7  8  2  0
  8  9  1  0
  9 10  2  0
 10 11  1  0
 11 12  1  0
 12 13  2  0
 12 14  1  0
 14 15  1  0
 15 16  1  0
 16 17  1  0
 17 18  1  0
 18 19  1  0
 19 20  1  0
 20 21  1  0
 21 22  2  0
 21 23  1  0
 23 24  1  0
 11 25  2  0
 25 26  1  0
  8 27  1  0
 27 28  2  0
 28  5  1  0
 26  9  1  0
M  END
>  <molecule_chembl_id>  (864) 
CHEMBL468842

>  <canonical_smiles>  (864) 
CC(=O)Nc1ccc(-c2cc(C(=O)NCCCCCCC(=O)NO)no2)cc1

>  <pchembl_value_mean>  (864) 
6.88

>  <document_chembl_id>  (864) 
CHEMBL1155917

$$$$

     RDKit          2D

 18 19  0  0  0  0  0  0  0  0999 V2000
    3.7500    1.2990    0.0000 O   0  0  0  0  0  0  0  0  0  0  0  0
    3.0000    0.0000    0.0000 C   0  0  0  0  0  0  0  0  0  0  0  0
    3.7500   -1.2990    0.0000 N   0  0  0  0  0  0  0  0  0  0  0  0
    5.2500   -1.2990    0.0000 O   0  0  0  0  0  0  0  0  0  0  0  0
    1.5000    0.0000    0.0000 C   0  0  0  0  0  0  0  0  0  0  0  0
    0.7500   -1.2990    0.0000 C   0  0  0  0  0  0  0  0  0  0  0  0
   -0.7500   -1.2990    0.0000 N   0  0  0  0  0  0  0  0  0  0  0  0
   -1.5000    0.0000    0.0000 C   0  0  0  0  0  0  0  0  0  0  0  0
   -3.0000    0.0000    0.0000 N   0  0  0  0  0  0  0  0  0  0  0  0
   -3.7500    1.2990    0.0000 C   0  0  0  0  0  0  0  0  0  0  0  0
   -5.2500    1.2990    0.0000 C   0  0  0  0  0  0  0  0  0  0  0  0
   -6.0000    2.5981    0.0000 C   0  0  0  0  0  0  0  0  0  0  0  0
   -7.5000    2.5981    0.0000 C   0  0  0  0  0  0  0  0  0  0  0  0
   -8.2500    1.2990    0.0000 C   0  0  0  0  0  0  0  0  0  0  0  0
   -7.5000    0.0000    0.0000 N   0  0  0  0  0  0  0  0  0  0  0  0
   -6.0000    0.0000    0.0000 C   0  0  0  0  0  0  0  0  0  0  0  0
   -0.7500    1.2990    0.0000 N   0  0  0  0  0  0  0  0  0  0  0  0
    0.7500    1.2990    0.0000 C   0  0  0  0  0  0  0  0  0  0  0  0
  1  2  2  0
  2  3  1  0
  3  4  1  0
  2  5  1  0
  5  6  2  0
  6  7  1  0
  7  8  2  0
  8  9  1  0
  9 10  1  0
 10 11  1  0
 11 12  2  0
 12 13  1  0
 13 14  2  0
 14 15  1  0
 15 16  2  0
  8 17  1  0
 17 18  2  0
 18  5  1  0
 16 11  1  0
M  END
>  <molecule_chembl_id>  (865) 
CHEMBL3655983

>  <canonical_smiles>  (865) 
O=C(NO)c1cnc(NCc2cccnc2)nc1

>  <pchembl_value_mean>  (865) 
6.88

>  <document_chembl_id>  (865) 
CHEMBL3639071

$$$$

     RDKit          2D

 26 28  0  0  0  0  0  0  0  0999 V2000
   -9.7500  -11.6913    0.0000 O   0  0  0  0  0  0  0  0  0  0  0  0
  -10.5000  -10.3923    0.0000 C   0  0  0  0  0  0  0  0  0  0  0  0
   -9.7500   -9.0933    0.0000 C   0  0  0  0  0  0  0  0  0  0  0  0
   -8.2500   -9.0933    0.0000 C   0  0  0  0  0  0  0  0  0  0  0  0
   -7.5000   -7.7942    0.0000 C   0  0  0  0  0  0  0  0  0  0  0  0
   -8.2500   -6.4952    0.0000 C   0  0  0  0  0  0  0  0  0  0  0  0
   -7.5000   -5.1962    0.0000 C   0  0  0  0  0  0  0  0  0  0  0  0
   -6.0000   -5.1962    0.0000 C   0  0  0  0  0  0  0  0  0  0  0  0
   -5.2500   -6.4952    0.0000 N   0  0  0  0  0  0  0  0  0  0  0  0
   -3.7500   -6.4952    0.0000 C   0  0  0  0  0  0  0  0  0  0  0  0
   -3.0000   -5.1962    0.0000 C   0  0  0  0  0  0  0  0  0  0  0  0
   -1.5000   -5.1962    0.0000 C   0  0  0  0  0  0  0  0  0  0  0  0
   -0.7500   -3.8971    0.0000 C   0  0  0  0  0  0  0  0  0  0  0  0
    0.7500   -3.8971    0.0000 C   0  0  0  0  0  0  0  0  0  0  0  0
    1.5000   -2.5981    0.0000 C   0  0  0  0  0  0  0  0  0  0  0  0
    0.7500   -1.2990    0.0000 C   0  0  0  0  0  0  0  0  0  0  0  0
    1.5000    0.0000    0.0000 C   0  0  0  0  0  0  0  0  0  0  0  0
    0.7500    1.2990    0.0000 C   0  0  0  0  0  0  0  0  0  0  0  0
   -0.7500    1.2990    0.0000 C   0  0  0  0  0  0  0  0  0  0  0  0
   -1.5000    0.0000    0.0000 C   0  0  0  0  0  0  0  0  0  0  0  0
   -0.7500   -1.2990    0.0000 C   0  0  0  0  0  0  0  0  0  0  0  0
   -1.5000   -2.5981    0.0000 C   0  0  0  0  0  0  0  0  0  0  0  0
   -6.0000   -7.7942    0.0000 C   0  0  0  0  0  0  0  0  0  0  0  0
   -5.2500   -9.0933    0.0000 O   0  0  0  0  0  0  0  0  0  0  0  0
  -12.0000  -10.3923    0.0000 N   0  0  0  0  0  0  0  0  0  0  0  0
  -12.7500  -11.6913    0.0000 O   0  0  0  0  0  0  0  0  0  0  0  0
  1  2  2  0
  2  3  1  0
  3  4  2  3
  4  5  1  0
  5  6  2  0
  6  7  1  0
  7  8  2  0
  8  9  1  0
  9 10  1  0
 10 11  1  0
 11 12  1  0
 12 13  1  0
 13 14  2  0
 14 15  1  0
 15 16  2  0
 16 17  1  0
 17 18  2  0
 18 19  1  0
 19 20  2  0
 20 21  1  0
 21 22  2  0
  9 23  1  0
 23 24  2  0
  2 25  1  0
 25 26  1  0
 23  5  1  0
 22 13  1  0
 21 16  1  0
M  END
>  <molecule_chembl_id>  (866) 
CHEMBL4082995

>  <canonical_smiles>  (866) 
O=C(C=Cc1cccn(CCCc2ccc3ccccc3c2)c1=O)NO

>  <pchembl_value_mean>  (866) 
6.89

>  <document_chembl_id>  (866) 
CHEMBL4422610

$$$$

     RDKit          2D

 30 33  0  0  0  0  0  0  0  0999 V2000
    3.0000    0.0000    0.0000 N   0  0  0  0  0  0  0  0  0  0  0  0
    1.5000    0.0000    0.0000 C   0  0  0  0  0  0  0  0  0  0  0  0
    0.7500   -1.2990    0.0000 C   0  0  0  0  0  0  0  0  0  0  0  0
   -0.7500   -1.2990    0.0000 C   0  0  0  0  0  0  0  0  0  0  0  0
   -1.5000    0.0000    0.0000 C   0  0  0  0  0  0  0  0  0  0  0  0
   -0.7500    1.2990    0.0000 C   0  0  0  0  0  0  0  0  0  0  0  0
    0.7500    1.2990    0.0000 C   0  0  0  0  0  0  0  0  0  0  0  0
    1.5000    2.5981    0.0000 N   0  0  0  0  0  0  0  0  0  0  0  0
    0.7500    3.8971    0.0000 C   0  0  0  0  0  0  0  0  0  0  0  0
   -0.7500    3.8971    0.0000 O   0  0  0  0  0  0  0  0  0  0  0  0
    1.5000    5.1962    0.0000 C   0  0  0  0  0  0  0  0  0  0  0  0
    3.0000    5.1962    0.0000 C   0  0  0  0  0  0  0  0  0  0  0  0
    3.7500    6.4952    0.0000 C   0  0  0  0  0  0  0  0  0  0  0  0
    3.0000    7.7942    0.0000 C   0  0  0  0  0  0  0  0  0  0  0  0
    3.7500    9.0933    0.0000 C   0  0  0  0  0  0  0  0  0  0  0  0
    5.2500    9.0933    0.0000 N   0  0  0  0  0  0  0  0  0  0  0  0
    6.0000   10.3923    0.0000 C   0  0  0  0  0  0  0  0  0  0  0  0
    5.3899   11.7626    0.0000 N   0  0  0  0  0  0  0  0  0  0  0  0
    6.5046   12.7663    0.0000 C   0  0  0  0  0  0  0  0  0  0  0  0
    6.3478   14.2581    0.0000 C   0  0  0  0  0  0  0  0  0  0  0  0
    7.5613   15.1398    0.0000 C   0  0  0  0  0  0  0  0  0  0  0  0
    8.9317   14.5297    0.0000 C   0  0  0  0  0  0  0  0  0  0  0  0
   10.1452   15.4114    0.0000 C   0  0  0  0  0  0  0  0  0  0  0  0
    9.9884   16.9031    0.0000 C   0  0  0  0  0  0  0  0  0  0  0  0
    8.6181   17.5132    0.0000 C   0  0  0  0  0  0  0  0  0  0  0  0
    7.4046   16.6316    0.0000 C   0  0  0  0  0  0  0  0  0  0  0  0
    7.8037   12.0163    0.0000 C   0  0  0  0  0  0  0  0  0  0  0  0
    7.4918   10.5491    0.0000 O   0  0  0  0  0  0  0  0  0  0  0  0
    1.5000    7.7942    0.0000 C   0  0  0  0  0  0  0  0  0  0  0  0
    0.7500    6.4952    0.0000 C   0  0  0  0  0  0  0  0  0  0  0  0
  1  2  1  0
  2  3  2  0
  3  4  1  0
  4  5  2  0
  5  6  1  0
  6  7  2  0
  7  8  1  0
  8  9  1  0
  9 10  2  0
  9 11  1  0
 11 12  2  0
 12 13  1  0
 13 14  2  0
 14 15  1  0
 15 16  1  0
 16 17  1  0
 17 18  2  0
 18 19  1  0
 19 20  1  0
 20 21  1  0
 21 22  2  0
 22 23  1  0
 23 24  2  0
 24 25  1  0
 25 26  2  0
 19 27  1  0
 27 28  1  0
 14 29  1  0
 29 30  2  0
  7  2  1  0
 30 11  1  0
 28 17  1  0
 26 21  1  0
M  END
>  <molecule_chembl_id>  (867) 
CHEMBL3605501

>  <canonical_smiles>  (867) 
Nc1ccccc1NC(=O)c1ccc(CNC2=NC(Cc3ccccc3)CO2)cc1

>  <pchembl_value_mean>  (867) 
6.89

>  <document_chembl_id>  (867) 
CHEMBL3603817

$$$$

     RDKit          2D

 35 39  0  0  0  0  0  0  0  0999 V2000
   13.6834    2.1615    0.0000 N   0  0  0  0  0  0  0  0  0  0  0  0
   13.8402    0.6697    0.0000 C   0  0  0  0  0  0  0  0  0  0  0  0
   15.2105    0.0596    0.0000 C   0  0  0  0  0  0  0  0  0  0  0  0
   15.3673   -1.4322    0.0000 C   0  0  0  0  0  0  0  0  0  0  0  0
   14.1537   -2.3139    0.0000 C   0  0  0  0  0  0  0  0  0  0  0  0
   12.7834   -1.7038    0.0000 C   0  0  0  0  0  0  0  0  0  0  0  0
   12.6266   -0.2120    0.0000 C   0  0  0  0  0  0  0  0  0  0  0  0
   11.2563    0.3981    0.0000 N   0  0  0  0  0  0  0  0  0  0  0  0
   11.0995    1.8899    0.0000 C   0  0  0  0  0  0  0  0  0  0  0  0
   12.3131    2.7716    0.0000 O   0  0  0  0  0  0  0  0  0  0  0  0
    9.7292    2.5000    0.0000 C   0  0  0  0  0  0  0  0  0  0  0  0
    9.5724    3.9918    0.0000 C   0  0  0  0  0  0  0  0  0  0  0  0
    8.2021    4.6019    0.0000 C   0  0  0  0  0  0  0  0  0  0  0  0
    6.9886    3.7202    0.0000 C   0  0  0  0  0  0  0  0  0  0  0  0
    5.6183    4.3303    0.0000 N   0  0  0  0  0  0  0  0  0  0  0  0
    4.4047    3.4486    0.0000 C   0  0  0  0  0  0  0  0  0  0  0  0
    4.5615    1.9568    0.0000 O   0  0  0  0  0  0  0  0  0  0  0  0
    3.0344    4.0587    0.0000 C   0  0  0  0  0  0  0  0  0  0  0  0
    1.8209    3.1771    0.0000 N   0  0  0  0  0  0  0  0  0  0  0  0
    1.8209    1.6771    0.0000 C   0  0  0  0  0  0  0  0  0  0  0  0
    3.0344    0.7954    0.0000 O   0  0  0  0  0  0  0  0  0  0  0  0
    0.3943    1.2135    0.0000 C   0  0  0  0  0  0  0  0  0  0  0  0
    1.2760    0.0000    0.0000 O   0  0  0  0  0  0  0  0  0  0  0  0
    0.3943   -1.2135    0.0000 C   0  0  0  0  0  0  0  0  0  0  0  0
   -1.0323   -0.7500    0.0000 C   0  0  0  0  0  0  0  0  0  0  0  0
   -1.0323    0.7500    0.0000 O   0  0  0  0  0  0  0  0  0  0  0  0
   -0.4874    2.4271    0.0000 C   0  0  0  0  0  0  0  0  0  0  0  0
   -1.9792    2.5838    0.0000 C   0  0  0  0  0  0  0  0  0  0  0  0
   -2.5893    3.9542    0.0000 C   0  0  0  0  0  0  0  0  0  0  0  0
   -4.0811    4.1110    0.0000 Br  0  0  0  0  0  0  0  0  0  0  0  0
   -1.7076    5.1677    0.0000 C   0  0  0  0  0  0  0  0  0  0  0  0
   -0.2158    5.0109    0.0000 C   0  0  0  0  0  0  0  0  0  0  0  0
    0.3943    3.6406    0.0000 C   0  0  0  0  0  0  0  0  0  0  0  0
    7.1454    2.2284    0.0000 C   0  0  0  0  0  0  0  0  0  0  0  0
    8.5157    1.6183    0.0000 C   0  0  0  0  0  0  0  0  0  0  0  0
  1  2  1  0
  2  3  2  0
  3  4  1  0
  4  5  2  0
  5  6  1  0
  6  7  2  0
  7  8  1  0
  8  9  1  0
  9 10  2  0
  9 11  1  0
 11 12  2  0
 12 13  1  0
 13 14  2  0
 14 15  1  0
 15 16  1  0
 16 17  2  0
 16 18  1  0
 18 19  1  0
 19 20  1  0
 20 21  2  0
 20 22  1  0
 22 23  1  0
 23 24  1  0
 24 25  1  0
 25 26  1  0
 22 27  1  0
 27 28  2  0
 28 29  1  0
 29 30  1  0
 29 31  2  0
 31 32  1  0
 32 33  2  0
 14 34  1  0
 34 35  2  0
  7  2  1  0
 35 11  1  0
 33 19  1  0
 26 22  1  0
 33 27  1  0
M  END
>  <molecule_chembl_id>  (868) 
CHEMBL4102475

>  <canonical_smiles>  (868) 
Nc1ccccc1NC(=O)c1ccc(NC(=O)CN2C(=O)C3(OCCO3)c3cc(Br)ccc32)cc1

>  <pchembl_value_mean>  (868) 
6.89

>  <document_chembl_id>  (868) 
CHEMBL4033688

$$$$

     RDKit          2D

 20 22  0  0  0  0  0  0  0  0999 V2000
    3.7500    1.2990    0.0000 O   0  0  0  0  0  0  0  0  0  0  0  0
    3.0000    0.0000    0.0000 C   0  0  0  0  0  0  0  0  0  0  0  0
    3.7500   -1.2990    0.0000 N   0  0  0  0  0  0  0  0  0  0  0  0
    5.2500   -1.2990    0.0000 O   0  0  0  0  0  0  0  0  0  0  0  0
    1.5000   -0.0000    0.0000 C   0  0  0  0  0  0  0  0  0  0  0  0
    0.7500   -1.2990    0.0000 C   0  0  0  0  0  0  0  0  0  0  0  0
   -0.7500   -1.2990    0.0000 N   0  0  0  0  0  0  0  0  0  0  0  0
   -1.5000    0.0000    0.0000 C   0  0  0  0  0  0  0  0  0  0  0  0
   -3.0000    0.0000    0.0000 N   0  0  0  0  0  0  0  0  0  0  0  0
   -3.7500    1.2990    0.0000 C   0  0  0  0  0  0  0  0  0  0  0  0
   -5.1595    0.7860    0.0000 C   0  0  0  0  0  0  0  0  0  0  0  0
   -5.4200   -0.6912    0.0000 C   0  0  0  0  0  0  0  0  0  0  0  0
   -6.8296   -1.2042    0.0000 C   0  0  0  0  0  0  0  0  0  0  0  0
   -7.9786   -0.2401    0.0000 C   0  0  0  0  0  0  0  0  0  0  0  0
   -7.7181    1.2372    0.0000 C   0  0  0  0  0  0  0  0  0  0  0  0
   -6.3086    1.7502    0.0000 C   0  0  0  0  0  0  0  0  0  0  0  0
   -4.0105    2.7762    0.0000 C   0  0  0  0  0  0  0  0  0  0  0  0
   -2.6009    2.2632    0.0000 C   0  0  0  0  0  0  0  0  0  0  0  0
   -0.7500    1.2990    0.0000 N   0  0  0  0  0  0  0  0  0  0  0  0
    0.7500    1.2990    0.0000 C   0  0  0  0  0  0  0  0  0  0  0  0
  1  2  2  0
  2  3  1  0
  3  4  1  0
  2  5  1  0
  5  6  2  0
  6  7  1  0
  7  8  2  0
  8  9  1  0
  9 10  1  0
 10 11  1  0
 11 12  2  0
 12 13  1  0
 13 14  2  0
 14 15  1  0
 15 16  2  0
 10 17  1  0
 17 18  1  0
  8 19  1  0
 19 20  2  0
 20  5  1  0
 18 10  1  0
 16 11  1  0
M  END
>  <molecule_chembl_id>  (869) 
CHEMBL3655950

>  <canonical_smiles>  (869) 
O=C(NO)c1cnc(NC2(c3ccccc3)CC2)nc1

>  <pchembl_value_mean>  (869) 
6.89

>  <document_chembl_id>  (869) 
CHEMBL3639071

$$$$

     RDKit          2D

 40 45  0  0  0  0  0  0  0  0999 V2000
    3.7500   -1.2990    0.0000 C   0  0  0  0  0  0  0  0  0  0  0  0
    3.0000    0.0000    0.0000 O   0  0  0  0  0  0  0  0  0  0  0  0
    1.5000    0.0000    0.0000 C   0  0  0  0  0  0  0  0  0  0  0  0
    0.7500   -1.2990    0.0000 C   0  0  0  0  0  0  0  0  0  0  0  0
   -0.7500   -1.2990    0.0000 C   0  0  0  0  0  0  0  0  0  0  0  0
   -1.5000   -2.5981    0.0000 N   0  0  0  0  0  0  0  0  0  0  0  0
   -3.0000   -2.5981    0.0000 C   0  0  0  0  0  0  0  0  0  0  0  0
   -3.7500   -3.8971    0.0000 C   0  0  0  0  0  0  0  0  0  0  0  0
   -3.1399   -5.2674    0.0000 C   0  0  0  0  0  0  0  0  0  0  0  0
   -4.2546   -6.2711    0.0000 C   0  0  0  0  0  0  0  0  0  0  0  0
   -5.5537   -5.5211    0.0000 C   0  0  0  0  0  0  0  0  0  0  0  0
   -6.9240   -6.1312    0.0000 C   0  0  0  0  0  0  0  0  0  0  0  0
   -5.2418   -4.0539    0.0000 O   0  0  0  0  0  0  0  0  0  0  0  0
   -3.7500   -1.2990    0.0000 C   0  0  0  0  0  0  0  0  0  0  0  0
   -3.0000    0.0000    0.0000 C   0  0  0  0  0  0  0  0  0  0  0  0
   -3.7500    1.2990    0.0000 N   0  0  0  0  0  0  0  0  0  0  0  0
   -5.2500    1.2990    0.0000 C   0  0  0  0  0  0  0  0  0  0  0  0
   -6.0000    2.5981    0.0000 C   0  0  0  0  0  0  0  0  0  0  0  0
   -5.3899    3.9684    0.0000 C   0  0  0  0  0  0  0  0  0  0  0  0
   -6.5046    4.9721    0.0000 C   0  0  0  0  0  0  0  0  0  0  0  0
   -7.8037    4.2221    0.0000 C   0  0  0  0  0  0  0  0  0  0  0  0
   -7.4918    2.7549    0.0000 C   0  0  0  0  0  0  0  0  0  0  0  0
   -6.8899    1.3703    0.0000 C   0  0  0  0  0  0  0  0  0  0  0  0
   -5.3899    1.3703    0.0000 N   0  0  0  0  0  0  0  0  0  0  0  0
   -4.6399    0.0713    0.0000 C   0  0  0  0  0  0  0  0  0  0  0  0
   -5.3899   -1.2278    0.0000 N   0  0  0  0  0  0  0  0  0  0  0  0
   -4.6399   -2.5268    0.0000 C   0  0  0  0  0  0  0  0  0  0  0  0
   -3.1399   -2.5268    0.0000 C   0  0  0  0  0  0  0  0  0  0  0  0
   -2.3899   -3.8258    0.0000 C   0  0  0  0  0  0  0  0  0  0  0  0
   -2.8033   -5.2677    0.0000 O   0  0  0  0  0  0  0  0  0  0  0  0
   -0.8899   -3.8258    0.0000 N   0  0  0  0  0  0  0  0  0  0  0  0
   -0.1399   -5.1249    0.0000 O   0  0  0  0  0  0  0  0  0  0  0  0
   -2.3899   -1.2278    0.0000 C   0  0  0  0  0  0  0  0  0  0  0  0
   -3.1399    0.0713    0.0000 N   0  0  0  0  0  0  0  0  0  0  0  0
   -4.6399    2.6694    0.0000 C   0  0  0  0  0  0  0  0  0  0  0  0
   -1.5000    0.0000    0.0000 C   0  0  0  0  0  0  0  0  0  0  0  0
   -0.7500    1.2990    0.0000 C   0  0  0  0  0  0  0  0  0  0  0  0
    0.7500    1.2990    0.0000 C   0  0  0  0  0  0  0  0  0  0  0  0
    1.5000    2.5981    0.0000 O   0  0  0  0  0  0  0  0  0  0  0  0
    3.0000    2.5981    0.0000 C   0  0  0  0  0  0  0  0  0  0  0  0
  1  2  1  0
  2  3  1  0
  3  4  2  0
  4  5  1  0
  5  6  2  0
  6  7  1  0
  7  8  1  0
  8  9  2  0
  9 10  1  0
 10 11  2  0
 11 12  1  0
 11 13  1  0
  7 14  2  0
 14 15  1  0
 15 16  1  0
 16 17  1  0
 17 18  1  0
 18 19  1  0
 19 20  1  0
 20 21  1  0
 21 22  1  0
 22 23  1  0
 23 24  1  0
 24 25  1  0
 25 26  2  0
 26 27  1  0
 27 28  2  0
 28 29  1  0
 29 30  2  0
 29 31  1  0
 31 32  1  0
 28 33  1  0
 33 34  2  0
 24 35  1  0
 15 36  2  0
 36 37  1  0
 37 38  2  0
 38 39  1  0
 39 40  1  0
 38  3  1  0
 36  5  1  0
 13  8  1  0
 22 18  1  0
 34 25  1  0
 35 19  1  0
M  END
>  <molecule_chembl_id>  (870) 
CHEMBL4876823

>  <canonical_smiles>  (870) 
COc1cc2nc(-c3ccc(C)o3)cc(NCC3C4CCC3CN(c3ncc(C(=O)NO)cn3)C4)c2cc1OC

>  <pchembl_value_mean>  (870) 
6.9

>  <document_chembl_id>  (870) 
CHEMBL4834403

$$$$

     RDKit          2D

 22 23  0  0  0  0  0  0  0  0999 V2000
    2.0490   -4.6471    0.0000 C   0  0  0  0  0  0  0  0  0  0  0  0
    0.7500   -3.8971    0.0000 C   0  0  0  0  0  0  0  0  0  0  0  0
   -0.5490   -3.1471    0.0000 C   0  0  0  0  0  0  0  0  0  0  0  0
    1.5000   -2.5981    0.0000 N   0  0  0  0  0  0  0  0  0  0  0  0
    0.7500   -1.2990    0.0000 C   0  0  0  0  0  0  0  0  0  0  0  0
    1.5000    0.0000    0.0000 N   0  0  0  0  0  0  0  0  0  0  0  0
    0.7500    1.2990    0.0000 C   0  0  0  0  0  0  0  0  0  0  0  0
   -0.7500    1.2990    0.0000 C   0  0  0  0  0  0  0  0  0  0  0  0
   -1.5000    2.5981    0.0000 C   0  0  0  0  0  0  0  0  0  0  0  0
   -3.0000    2.5981    0.0000 O   0  0  0  0  0  0  0  0  0  0  0  0
   -0.7500    3.8971    0.0000 N   0  0  0  0  0  0  0  0  0  0  0  0
   -1.5000    5.1962    0.0000 O   0  0  0  0  0  0  0  0  0  0  0  0
   -1.5000    0.0000    0.0000 C   0  0  0  0  0  0  0  0  0  0  0  0
   -0.7500   -1.2990    0.0000 N   0  0  0  0  0  0  0  0  0  0  0  0
   -0.0000   -5.1962    0.0000 C   0  0  0  0  0  0  0  0  0  0  0  0
   -1.5000   -5.1962    0.0000 C   0  0  0  0  0  0  0  0  0  0  0  0
   -2.2500   -6.4952    0.0000 C   0  0  0  0  0  0  0  0  0  0  0  0
   -1.5000   -7.7942    0.0000 C   0  0  0  0  0  0  0  0  0  0  0  0
   -2.2500   -9.0933    0.0000 Cl  0  0  0  0  0  0  0  0  0  0  0  0
   -0.0000   -7.7942    0.0000 C   0  0  0  0  0  0  0  0  0  0  0  0
    0.7500   -9.0933    0.0000 Cl  0  0  0  0  0  0  0  0  0  0  0  0
    0.7500   -6.4952    0.0000 C   0  0  0  0  0  0  0  0  0  0  0  0
  1  2  1  0
  2  3  1  0
  2  4  1  0
  4  5  1  0
  5  6  2  0
  6  7  1  0
  7  8  2  0
  8  9  1  0
  9 10  2  0
  9 11  1  0
 11 12  1  0
  8 13  1  0
 13 14  2  0
  2 15  1  0
 15 16  2  0
 16 17  1  0
 17 18  2  0
 18 19  1  0
 18 20  1  0
 20 21  1  0
 20 22  2  0
 14  5  1  0
 22 15  1  0
M  END
>  <molecule_chembl_id>  (871) 
CHEMBL3655957

>  <canonical_smiles>  (871) 
CC(C)(Nc1ncc(C(=O)NO)cn1)c1ccc(Cl)c(Cl)c1

>  <pchembl_value_mean>  (871) 
6.9

>  <document_chembl_id>  (871) 
CHEMBL3639071

$$$$

     RDKit          2D

 22 23  0  0  0  0  0  0  0  0999 V2000
    3.7500    1.2990    0.0000 O   0  0  0  0  0  0  0  0  0  0  0  0
    3.0000    0.0000    0.0000 C   0  0  0  0  0  0  0  0  0  0  0  0
    3.7500   -1.2990    0.0000 N   0  0  0  0  0  0  0  0  0  0  0  0
    5.2500   -1.2990    0.0000 O   0  0  0  0  0  0  0  0  0  0  0  0
    1.5000    0.0000    0.0000 C   0  0  0  0  0  0  0  0  0  0  0  0
    0.7500   -1.2990    0.0000 C   0  0  0  0  0  0  0  0  0  0  0  0
   -0.7500   -1.2990    0.0000 N   0  0  0  0  0  0  0  0  0  0  0  0
   -1.5000    0.0000    0.0000 C   0  0  0  0  0  0  0  0  0  0  0  0
   -3.0000    0.0000    0.0000 N   0  0  0  0  0  0  0  0  0  0  0  0
   -3.7500    1.2990    0.0000 C   0  0  0  0  0  0  0  0  0  0  0  0
   -5.2500    1.2990    0.0000 C   0  0  0  0  0  0  0  0  0  0  0  0
   -6.0000    2.5981    0.0000 C   0  0  0  0  0  0  0  0  0  0  0  0
   -7.5000    2.5981    0.0000 C   0  0  0  0  0  0  0  0  0  0  0  0
   -8.2500    1.2990    0.0000 C   0  0  0  0  0  0  0  0  0  0  0  0
   -9.7500    1.2990    0.0000 C   0  0  0  0  0  0  0  0  0  0  0  0
  -11.2500    1.2990    0.0000 F   0  0  0  0  0  0  0  0  0  0  0  0
   -9.7500    2.7990    0.0000 F   0  0  0  0  0  0  0  0  0  0  0  0
   -9.7500   -0.2010    0.0000 F   0  0  0  0  0  0  0  0  0  0  0  0
   -7.5000    0.0000    0.0000 C   0  0  0  0  0  0  0  0  0  0  0  0
   -6.0000    0.0000    0.0000 C   0  0  0  0  0  0  0  0  0  0  0  0
   -0.7500    1.2990    0.0000 N   0  0  0  0  0  0  0  0  0  0  0  0
    0.7500    1.2990    0.0000 C   0  0  0  0  0  0  0  0  0  0  0  0
  1  2  2  0
  2  3  1  0
  3  4  1  0
  2  5  1  0
  5  6  2  0
  6  7  1  0
  7  8  2  0
  8  9  1  0
  9 10  1  0
 10 11  1  0
 11 12  2  0
 12 13  1  0
 13 14  2  0
 14 15  1  0
 15 16  1  0
 15 17  1  0
 15 18  1  0
 14 19  1  0
 19 20  2  0
  8 21  1  0
 21 22  2  0
 22  5  1  0
 20 11  1  0
M  END
>  <molecule_chembl_id>  (872) 
CHEMBL3655920

>  <canonical_smiles>  (872) 
O=C(NO)c1cnc(NCc2ccc(C(F)(F)F)cc2)nc1

>  <pchembl_value_mean>  (872) 
6.9

>  <document_chembl_id>  (872) 
CHEMBL3639071

$$$$

     RDKit          2D

 31 33  0  0  0  0  0  0  0  0999 V2000
   12.7500   -3.8971    0.0000 O   0  0  0  0  0  0  0  0  0  0  0  0
   12.0000   -5.1962    0.0000 C   0  0  0  0  0  0  0  0  0  0  0  0
   10.5000   -5.1962    0.0000 C   0  0  0  0  0  0  0  0  0  0  0  0
    9.7500   -3.8971    0.0000 C   0  0  0  0  0  0  0  0  0  0  0  0
    8.2500   -3.8971    0.0000 C   0  0  0  0  0  0  0  0  0  0  0  0
    7.5000   -2.5981    0.0000 C   0  0  0  0  0  0  0  0  0  0  0  0
    6.0000   -2.5981    0.0000 C   0  0  0  0  0  0  0  0  0  0  0  0
    5.2500   -1.2990    0.0000 C   0  0  0  0  0  0  0  0  0  0  0  0
    3.7500   -1.2990    0.0000 C   0  0  0  0  0  0  0  0  0  0  0  0
    3.0000   -2.5981    0.0000 O   0  0  0  0  0  0  0  0  0  0  0  0
    3.0000    0.0000    0.0000 N   0  0  0  0  0  0  0  0  0  0  0  0
    1.5000    0.0000    0.0000 C   0  0  0  0  0  0  0  0  0  0  0  0
    0.7500   -1.2990    0.0000 C   0  0  0  0  0  0  0  0  0  0  0  0
   -0.7500   -1.2990    0.0000 C   0  0  0  0  0  0  0  0  0  0  0  0
   -1.5000    0.0000    0.0000 C   0  0  0  0  0  0  0  0  0  0  0  0
   -3.0000    0.0000    0.0000 C   0  0  0  0  0  0  0  0  0  0  0  0
   -3.8817   -1.2135    0.0000 C   0  0  0  0  0  0  0  0  0  0  0  0
   -5.3083   -0.7500    0.0000 N   0  0  0  0  0  0  0  0  0  0  0  0
   -5.3083    0.7500    0.0000 N   0  0  0  0  0  0  0  0  0  0  0  0
   -3.8817    1.2135    0.0000 N   0  0  0  0  0  0  0  0  0  0  0  0
   -3.4182    2.6401    0.0000 C   0  0  0  0  0  0  0  0  0  0  0  0
   -4.4218    3.7548    0.0000 C   0  0  0  0  0  0  0  0  0  0  0  0
   -3.9583    5.1814    0.0000 C   0  0  0  0  0  0  0  0  0  0  0  0
   -4.9620    6.2961    0.0000 C   0  0  0  0  0  0  0  0  0  0  0  0
   -6.4292    5.9843    0.0000 C   0  0  0  0  0  0  0  0  0  0  0  0
   -6.8928    4.5577    0.0000 C   0  0  0  0  0  0  0  0  0  0  0  0
   -5.8891    3.4430    0.0000 C   0  0  0  0  0  0  0  0  0  0  0  0
   -0.7500    1.2990    0.0000 C   0  0  0  0  0  0  0  0  0  0  0  0
    0.7500    1.2990    0.0000 C   0  0  0  0  0  0  0  0  0  0  0  0
   12.7500   -6.4952    0.0000 N   0  0  0  0  0  0  0  0  0  0  0  0
   14.2500   -6.4952    0.0000 O   0  0  0  0  0  0  0  0  0  0  0  0
  1  2  2  0
  2  3  1  0
  3  4  1  0
  4  5  1  0
  5  6  1  0
  6  7  1  0
  7  8  1  0
  8  9  1  0
  9 10  2  0
  9 11  1  0
 11 12  1  0
 12 13  2  0
 13 14  1  0
 14 15  2  0
 15 16  1  0
 16 17  2  0
 17 18  1  0
 18 19  2  0
 19 20  1  0
 20 21  1  0
 21 22  1  0
 22 23  2  0
 23 24  1  0
 24 25  2  0
 25 26  1  0
 26 27  2  0
 15 28  1  0
 28 29  2  0
  2 30  1  0
 30 31  1  0
 29 12  1  0
 20 16  1  0
 27 22  1  0
M  END
>  <molecule_chembl_id>  (873) 
CHEMBL519746

>  <canonical_smiles>  (873) 
O=C(CCCCCCC(=O)Nc1ccc(-c2cnnn2Cc2ccccc2)cc1)NO

>  <pchembl_value_mean>  (873) 
6.91

>  <document_chembl_id>  (873) 
CHEMBL1150413

$$$$

     RDKit          2D

 28 29  0  0  0  0  0  0  0  0999 V2000
    3.0000  -12.9904    0.0000 O   0  0  0  0  0  0  0  0  0  0  0  0
    1.5000  -12.9904    0.0000 C   0  0  0  0  0  0  0  0  0  0  0  0
    0.7500  -11.6913    0.0000 C   0  0  0  0  0  0  0  0  0  0  0  0
    1.5000  -10.3923    0.0000 C   0  0  0  0  0  0  0  0  0  0  0  0
    0.7500   -9.0933    0.0000 C   0  0  0  0  0  0  0  0  0  0  0  0
    1.5000   -7.7942    0.0000 C   0  0  0  0  0  0  0  0  0  0  0  0
    0.7500   -6.4952    0.0000 C   0  0  0  0  0  0  0  0  0  0  0  0
    1.5000   -5.1962    0.0000 C   0  0  0  0  0  0  0  0  0  0  0  0
    3.0000   -5.1962    0.0000 N   0  0  0  0  0  0  0  0  0  0  0  0
    3.7500   -6.4952    0.0000 C   0  0  0  0  0  0  0  0  0  0  0  0
    3.0000   -7.7942    0.0000 O   0  0  0  0  0  0  0  0  0  0  0  0
    5.2500   -6.4952    0.0000 C   0  0  0  0  0  0  0  0  0  0  0  0
    6.1317   -5.2817    0.0000 C   0  0  0  0  0  0  0  0  0  0  0  0
    7.5583   -5.7452    0.0000 C   0  0  0  0  0  0  0  0  0  0  0  0
    7.5583   -7.2452    0.0000 C   0  0  0  0  0  0  0  0  0  0  0  0
    8.7718   -8.1269    0.0000 O   0  0  0  0  0  0  0  0  0  0  0  0
    6.1317   -7.7087    0.0000 N   0  0  0  0  0  0  0  0  0  0  0  0
    0.7500   -3.8971    0.0000 C   0  0  0  0  0  0  0  0  0  0  0  0
   -0.7500   -3.8971    0.0000 O   0  0  0  0  0  0  0  0  0  0  0  0
    1.5000   -2.5981    0.0000 N   0  0  0  0  0  0  0  0  0  0  0  0
    0.7500   -1.2990    0.0000 C   0  0  0  0  0  0  0  0  0  0  0  0
    1.5000    0.0000    0.0000 C   0  0  0  0  0  0  0  0  0  0  0  0
    0.7500    1.2990    0.0000 C   0  0  0  0  0  0  0  0  0  0  0  0
   -0.7500    1.2990    0.0000 C   0  0  0  0  0  0  0  0  0  0  0  0
   -1.5000    0.0000    0.0000 C   0  0  0  0  0  0  0  0  0  0  0  0
   -0.7500   -1.2990    0.0000 C   0  0  0  0  0  0  0  0  0  0  0  0
    0.7500  -14.2894    0.0000 N   0  0  0  0  0  0  0  0  0  0  0  0
    1.5000  -15.5885    0.0000 O   0  0  0  0  0  0  0  0  0  0  0  0
  1  2  2  0
  2  3  1  0
  3  4  1  0
  4  5  1  0
  5  6  1  0
  6  7  1  0
  7  8  1  0
  8  9  1  0
  9 10  1  0
 10 11  2  0
 10 12  1  0
 12 13  1  0
 13 14  1  0
 14 15  1  0
 15 16  2  0
 15 17  1  0
  8 18  1  0
 18 19  2  0
 18 20  1  0
 20 21  1  0
 21 22  2  0
 22 23  1  0
 23 24  2  0
 24 25  1  0
 25 26  2  0
  2 27  1  0
 27 28  1  0
 17 12  1  0
 26 21  1  0
M  END
>  <molecule_chembl_id>  (874) 
CHEMBL3098691

>  <canonical_smiles>  (874) 
O=C(CCCCCC(NC(=O)C1CCC(=O)N1)C(=O)Nc1ccccc1)NO

>  <pchembl_value_mean>  (874) 
6.913333

>  <document_chembl_id>  (874) 
CHEMBL3098008

$$$$

     RDKit          2D

 37 41  0  0  0  0  0  0  0  0999 V2000
   -6.0748  -18.5558    0.0000 C   0  0  0  0  0  0  0  0  0  0  0  0
   -6.2315  -17.0640    0.0000 C   0  0  0  0  0  0  0  0  0  0  0  0
   -5.0180  -16.1823    0.0000 C   0  0  0  0  0  0  0  0  0  0  0  0
   -3.6477  -16.7924    0.0000 O   0  0  0  0  0  0  0  0  0  0  0  0
   -5.1748  -14.6905    0.0000 C   0  0  0  0  0  0  0  0  0  0  0  0
   -3.9613  -13.8089    0.0000 C   0  0  0  0  0  0  0  0  0  0  0  0
   -4.1181  -12.3171    0.0000 C   0  0  0  0  0  0  0  0  0  0  0  0
   -2.9046  -11.4354    0.0000 C   0  0  0  0  0  0  0  0  0  0  0  0
   -3.0613   -9.9436    0.0000 C   0  0  0  0  0  0  0  0  0  0  0  0
   -1.8478   -9.0619    0.0000 C   0  0  0  0  0  0  0  0  0  0  0  0
   -0.4775   -9.6721    0.0000 N   0  0  0  0  0  0  0  0  0  0  0  0
   -0.3207  -11.1638    0.0000 C   0  0  0  0  0  0  0  0  0  0  0  0
   -1.5342  -12.0455    0.0000 O   0  0  0  0  0  0  0  0  0  0  0  0
    1.0496  -11.7739    0.0000 C   0  0  0  0  0  0  0  0  0  0  0  0
    2.5414  -11.6171    0.0000 C   0  0  0  0  0  0  0  0  0  0  0  0
    1.9313  -12.9875    0.0000 C   0  0  0  0  0  0  0  0  0  0  0  0
    0.7178  -13.8691    0.0000 C   0  0  0  0  0  0  0  0  0  0  0  0
    0.8746  -15.3609    0.0000 C   0  0  0  0  0  0  0  0  0  0  0  0
    2.2449  -15.9710    0.0000 N   0  0  0  0  0  0  0  0  0  0  0  0
    2.4017  -17.4628    0.0000 C   0  0  0  0  0  0  0  0  0  0  0  0
    3.4584  -15.0894    0.0000 C   0  0  0  0  0  0  0  0  0  0  0  0
    3.3016  -13.5976    0.0000 C   0  0  0  0  0  0  0  0  0  0  0  0
   -2.0046   -7.5702    0.0000 C   0  0  0  0  0  0  0  0  0  0  0  0
   -3.3037   -6.8202    0.0000 N   0  0  0  0  0  0  0  0  0  0  0  0
   -2.9918   -5.3529    0.0000 C   0  0  0  0  0  0  0  0  0  0  0  0
   -1.5000   -5.1962    0.0000 C   0  0  0  0  0  0  0  0  0  0  0  0
   -0.7500   -3.8971    0.0000 C   0  0  0  0  0  0  0  0  0  0  0  0
    0.7500   -3.8971    0.0000 C   0  0  0  0  0  0  0  0  0  0  0  0
    1.5000   -2.5981    0.0000 N   0  0  0  0  0  0  0  0  0  0  0  0
    0.7500   -1.2990    0.0000 C   0  0  0  0  0  0  0  0  0  0  0  0
    1.5000    0.0000    0.0000 C   0  0  0  0  0  0  0  0  0  0  0  0
    0.7500    1.2990    0.0000 C   0  0  0  0  0  0  0  0  0  0  0  0
   -0.7500    1.2990    0.0000 C   0  0  0  0  0  0  0  0  0  0  0  0
   -1.5000    0.0000    0.0000 N   0  0  0  0  0  0  0  0  0  0  0  0
   -0.7500   -1.2990    0.0000 C   0  0  0  0  0  0  0  0  0  0  0  0
   -1.5000   -2.5981    0.0000 C   0  0  0  0  0  0  0  0  0  0  0  0
   -0.8899   -6.5665    0.0000 N   0  0  0  0  0  0  0  0  0  0  0  0
  1  2  1  0
  2  3  1  0
  3  4  2  0
  3  5  1  0
  5  6  1  0
  6  7  1  0
  7  8  1  0
  8  9  1  0
  9 10  1  0
 10 11  1  0
 11 12  1  0
 12 13  2  0
 12 14  1  0
 14 15  1  0
 15 16  1  0
 16 17  1  0
 17 18  1  0
 18 19  1  0
 19 20  1  0
 19 21  1  0
 21 22  1  0
 10 23  1  0
 23 24  2  0
 24 25  1  0
 25 26  2  0
 26 27  1  0
 27 28  2  0
 28 29  1  0
 29 30  2  0
 30 31  1  0
 31 32  2  0
 32 33  1  0
 33 34  2  0
 34 35  1  0
 35 36  2  0
 26 37  1  0
 16 14  1  0
 37 23  1  0
 22 16  1  0
 36 27  1  0
 35 30  1  0
M  END
>  <molecule_chembl_id>  (875) 
CHEMBL4759915

>  <canonical_smiles>  (875) 
CCC(=O)CCCCCC(NC(=O)C1CC12CCN(C)CC2)c1ncc(-c2cnc3cccnc3c2)[nH]1

>  <pchembl_value_mean>  (875) 
6.915

>  <document_chembl_id>  (875) 
CHEMBL4680369

$$$$

     RDKit          2D

 22 24  0  0  0  0  0  0  0  0999 V2000
   -4.5113  -11.9925    0.0000 O   0  0  0  0  0  0  0  0  0  0  0  0
   -5.6260  -10.9888    0.0000 C   0  0  0  0  0  0  0  0  0  0  0  0
   -7.0526  -11.4523    0.0000 N   0  0  0  0  0  0  0  0  0  0  0  0
   -7.3645  -12.9195    0.0000 O   0  0  0  0  0  0  0  0  0  0  0  0
   -5.3142   -9.5216    0.0000 C   0  0  0  0  0  0  0  0  0  0  0  0
   -6.4289   -8.5179    0.0000 C   0  0  0  0  0  0  0  0  0  0  0  0
   -6.1170   -7.0506    0.0000 N   0  0  0  0  0  0  0  0  0  0  0  0
   -4.6904   -6.5871    0.0000 C   0  0  0  0  0  0  0  0  0  0  0  0
   -4.3786   -5.1199    0.0000 N   0  0  0  0  0  0  0  0  0  0  0  0
   -2.9520   -4.6564    0.0000 C   0  0  0  0  0  0  0  0  0  0  0  0
   -2.6401   -3.1891    0.0000 C   0  0  0  0  0  0  0  0  0  0  0  0
   -1.2135   -2.7256    0.0000 C   0  0  0  0  0  0  0  0  0  0  0  0
   -0.0000   -3.6073    0.0000 C   0  0  0  0  0  0  0  0  0  0  0  0
    1.2135   -2.7256    0.0000 N   0  0  0  0  0  0  0  0  0  0  0  0
    0.7500   -1.2990    0.0000 C   0  0  0  0  0  0  0  0  0  0  0  0
    1.5000    0.0000    0.0000 C   0  0  0  0  0  0  0  0  0  0  0  0
    0.7500    1.2990    0.0000 C   0  0  0  0  0  0  0  0  0  0  0  0
   -0.7500    1.2990    0.0000 C   0  0  0  0  0  0  0  0  0  0  0  0
   -1.5000    0.0000    0.0000 C   0  0  0  0  0  0  0  0  0  0  0  0
   -0.7500   -1.2990    0.0000 C   0  0  0  0  0  0  0  0  0  0  0  0
   -3.5757   -7.5908    0.0000 N   0  0  0  0  0  0  0  0  0  0  0  0
   -3.8876   -9.0580    0.0000 C   0  0  0  0  0  0  0  0  0  0  0  0
  1  2  2  0
  2  3  1  0
  3  4  1  0
  2  5  1  0
  5  6  2  0
  6  7  1  0
  7  8  2  0
  8  9  1  0
  9 10  1  0
 10 11  1  0
 11 12  1  0
 12 13  2  0
 13 14  1  0
 14 15  1  0
 15 16  2  0
 16 17  1  0
 17 18  2  0
 18 19  1  0
 19 20  2  0
  8 21  1  0
 21 22  2  0
 22  5  1  0
 20 12  1  0
 20 15  1  0
M  END
>  <molecule_chembl_id>  (876) 
CHEMBL3655926

>  <canonical_smiles>  (876) 
O=C(NO)c1cnc(NCCc2c[nH]c3ccccc23)nc1

>  <pchembl_value_mean>  (876) 
6.92

>  <document_chembl_id>  (876) 
CHEMBL3639071

$$$$

     RDKit          2D

 27 30  0  0  0  0  0  0  0  0999 V2000
    3.7500   -6.4952    0.0000 N   0  0  0  0  0  0  0  0  0  0  0  0
    3.0000   -7.7942    0.0000 C   0  0  0  0  0  0  0  0  0  0  0  0
    3.7500   -9.0933    0.0000 C   0  0  0  0  0  0  0  0  0  0  0  0
    3.0000  -10.3923    0.0000 C   0  0  0  0  0  0  0  0  0  0  0  0
    1.5000  -10.3923    0.0000 C   0  0  0  0  0  0  0  0  0  0  0  0
    0.7500  -11.6913    0.0000 C   0  0  0  0  0  0  0  0  0  0  0  0
   -0.7500  -11.6913    0.0000 C   0  0  0  0  0  0  0  0  0  0  0  0
   -1.5000  -12.9904    0.0000 C   0  0  0  0  0  0  0  0  0  0  0  0
   -0.7500  -14.2894    0.0000 C   0  0  0  0  0  0  0  0  0  0  0  0
   -1.5000  -15.5885    0.0000 F   0  0  0  0  0  0  0  0  0  0  0  0
    0.7500  -14.2894    0.0000 C   0  0  0  0  0  0  0  0  0  0  0  0
    1.5000  -12.9904    0.0000 C   0  0  0  0  0  0  0  0  0  0  0  0
    0.7500   -9.0933    0.0000 C   0  0  0  0  0  0  0  0  0  0  0  0
    1.5000   -7.7942    0.0000 C   0  0  0  0  0  0  0  0  0  0  0  0
    0.7500   -6.4952    0.0000 N   0  0  0  0  0  0  0  0  0  0  0  0
    1.5000   -5.1962    0.0000 C   0  0  0  0  0  0  0  0  0  0  0  0
    3.0000   -5.1962    0.0000 O   0  0  0  0  0  0  0  0  0  0  0  0
    0.7500   -3.8971    0.0000 C   0  0  0  0  0  0  0  0  0  0  0  0
    1.5000   -2.5981    0.0000 C   0  0  0  0  0  0  0  0  0  0  0  0
    0.7500   -1.2990    0.0000 C   0  0  0  0  0  0  0  0  0  0  0  0
    1.5000    0.0000    0.0000 C   0  0  0  0  0  0  0  0  0  0  0  0
    0.7500    1.2990    0.0000 C   0  0  0  0  0  0  0  0  0  0  0  0
   -0.7500    1.2990    0.0000 C   0  0  0  0  0  0  0  0  0  0  0  0
   -1.5000    0.0000    0.0000 C   0  0  0  0  0  0  0  0  0  0  0  0
   -0.7500   -1.2990    0.0000 C   0  0  0  0  0  0  0  0  0  0  0  0
   -1.5000   -2.5981    0.0000 C   0  0  0  0  0  0  0  0  0  0  0  0
   -0.7500   -3.8971    0.0000 O   0  0  0  0  0  0  0  0  0  0  0  0
  1  2  1  0
  2  3  2  0
  3  4  1  0
  4  5  2  0
  5  6  1  0
  6  7  2  0
  7  8  1  0
  8  9  2  0
  9 10  1  0
  9 11  1  0
 11 12  2  0
  5 13  1  0
 13 14  2  0
 14 15  1  0
 15 16  1  0
 16 17  2  0
 16 18  1  0
 18 19  1  0
 19 20  1  0
 20 21  2  0
 21 22  1  0
 22 23  2  0
 23 24  1  0
 24 25  2  0
 25 26  1  0
 26 27  1  0
 14  2  1  0
 27 18  1  0
 12  6  1  0
 25 20  1  0
M  END
>  <molecule_chembl_id>  (877) 
CHEMBL3827993

>  <canonical_smiles>  (877) 
Nc1ccc(-c2ccc(F)cc2)cc1NC(=O)C1Cc2ccccc2CO1

>  <pchembl_value_mean>  (877) 
6.92

>  <document_chembl_id>  (877) 
CHEMBL3826926

$$$$

     RDKit          2D

 39 42  0  0  0  0  0  0  0  0999 V2000
   -7.5000   -5.1962    0.0000 C   0  0  0  0  0  0  0  0  0  0  0  0
   -6.0000   -5.1962    0.0000 C   0  0  0  0  0  0  0  0  0  0  0  0
   -5.2500   -3.8971    0.0000 C   0  0  0  0  0  0  0  0  0  0  0  0
   -6.0000   -2.5981    0.0000 O   0  0  0  0  0  0  0  0  0  0  0  0
   -3.7500   -3.8971    0.0000 N   0  0  0  0  0  0  0  0  0  0  0  0
   -3.0000   -2.5981    0.0000 C   0  0  0  0  0  0  0  0  0  0  0  0
   -1.5000   -2.5981    0.0000 C   0  0  0  0  0  0  0  0  0  0  0  0
   -0.7500   -1.2990    0.0000 C   0  0  0  0  0  0  0  0  0  0  0  0
    0.7500   -1.2990    0.0000 C   0  0  0  0  0  0  0  0  0  0  0  0
    1.5000   -2.5981    0.0000 N   0  0  0  0  0  0  0  0  0  0  0  0
    3.0000   -2.5981    0.0000 C   0  0  0  0  0  0  0  0  0  0  0  0
    3.7500   -3.8971    0.0000 C   0  0  0  0  0  0  0  0  0  0  0  0
    5.2500   -3.8971    0.0000 C   0  0  0  0  0  0  0  0  0  0  0  0
    6.0000   -2.5981    0.0000 C   0  0  0  0  0  0  0  0  0  0  0  0
    7.5000   -2.5981    0.0000 F   0  0  0  0  0  0  0  0  0  0  0  0
    5.2500   -1.2990    0.0000 C   0  0  0  0  0  0  0  0  0  0  0  0
    6.0000   -0.0000    0.0000 Cl  0  0  0  0  0  0  0  0  0  0  0  0
    3.7500   -1.2990    0.0000 C   0  0  0  0  0  0  0  0  0  0  0  0
    1.5000    0.0000    0.0000 N   0  0  0  0  0  0  0  0  0  0  0  0
    0.7500    1.2990    0.0000 C   0  0  0  0  0  0  0  0  0  0  0  0
   -0.7500    1.2990    0.0000 N   0  0  0  0  0  0  0  0  0  0  0  0
   -1.5000    0.0000    0.0000 C   0  0  0  0  0  0  0  0  0  0  0  0
   -3.0000    0.0000    0.0000 C   0  0  0  0  0  0  0  0  0  0  0  0
   -3.7500   -1.2990    0.0000 C   0  0  0  0  0  0  0  0  0  0  0  0
   -5.2500   -1.2990    0.0000 O   0  0  0  0  0  0  0  0  0  0  0  0
   -6.0000    0.0000    0.0000 C   0  0  0  0  0  0  0  0  0  0  0  0
   -7.5000    0.0000    0.0000 C   0  0  0  0  0  0  0  0  0  0  0  0
   -8.3817   -1.2135    0.0000 C   0  0  0  0  0  0  0  0  0  0  0  0
   -9.8083   -0.7500    0.0000 N   0  0  0  0  0  0  0  0  0  0  0  0
  -11.0218   -1.6317    0.0000 C   0  0  0  0  0  0  0  0  0  0  0  0
  -12.3921   -1.0216    0.0000 C   0  0  0  0  0  0  0  0  0  0  0  0
  -13.6056   -1.9033    0.0000 C   0  0  0  0  0  0  0  0  0  0  0  0
  -14.9760   -1.2931    0.0000 C   0  0  0  0  0  0  0  0  0  0  0  0
  -16.1895   -2.1748    0.0000 C   0  0  0  0  0  0  0  0  0  0  0  0
  -16.0327   -3.6666    0.0000 O   0  0  0  0  0  0  0  0  0  0  0  0
  -17.5598   -1.5647    0.0000 N   0  0  0  0  0  0  0  0  0  0  0  0
  -18.7733   -2.4464    0.0000 O   0  0  0  0  0  0  0  0  0  0  0  0
   -9.8083    0.7500    0.0000 N   0  0  0  0  0  0  0  0  0  0  0  0
   -8.3817    1.2135    0.0000 N   0  0  0  0  0  0  0  0  0  0  0  0
  1  2  2  0
  2  3  1  0
  3  4  2  0
  3  5  1  0
  5  6  1  0
  6  7  2  0
  7  8  1  0
  8  9  2  0
  9 10  1  0
 10 11  1  0
 11 12  2  0
 12 13  1  0
 13 14  2  0
 14 15  1  0
 14 16  1  0
 16 17  1  0
 16 18  2  0
  9 19  1  0
 19 20  2  0
 20 21  1  0
 21 22  2  0
 22 23  1  0
 23 24  2  0
 24 25  1  0
 25 26  1  0
 26 27  1  0
 27 28  2  0
 28 29  1  0
 29 30  1  0
 30 31  1  0
 31 32  1  0
 32 33  1  0
 33 34  1  0
 34 35  2  0
 34 36  1  0
 36 37  1  0
 29 38  1  0
 38 39  2  0
 24  6  1  0
 39 27  1  0
 22  8  1  0
 18 11  1  0
M  END
>  <molecule_chembl_id>  (878) 
CHEMBL4744985

>  <canonical_smiles>  (878) 
C=CC(=O)Nc1cc2c(Nc3ccc(F)c(Cl)c3)ncnc2cc1OCc1cn(CCCCC(=O)NO)nn1

>  <pchembl_value_mean>  (878) 
6.92

>  <document_chembl_id>  (878) 
CHEMBL4732162

$$$$

     RDKit          2D

 39 43  0  0  0  0  0  0  0  0999 V2000
    7.7282  -11.6340    0.0000 C   0  0  0  0  0  0  0  0  0  0  0  0
    6.3579  -11.0239    0.0000 C   0  0  0  0  0  0  0  0  0  0  0  0
    6.2011   -9.5322    0.0000 C   0  0  0  0  0  0  0  0  0  0  0  0
    4.8308   -8.9221    0.0000 C   0  0  0  0  0  0  0  0  0  0  0  0
    4.6740   -7.4303    0.0000 C   0  0  0  0  0  0  0  0  0  0  0  0
    5.8875   -6.5486    0.0000 N   0  0  0  0  0  0  0  0  0  0  0  0
    7.2578   -7.1587    0.0000 C   0  0  0  0  0  0  0  0  0  0  0  0
    7.4146   -8.6505    0.0000 O   0  0  0  0  0  0  0  0  0  0  0  0
    8.4713   -6.2770    0.0000 C   0  0  0  0  0  0  0  0  0  0  0  0
    9.8417   -6.8871    0.0000 C   0  0  0  0  0  0  0  0  0  0  0  0
    8.3145   -4.7852    0.0000 C   0  0  0  0  0  0  0  0  0  0  0  0
    7.0155   -4.0352    0.0000 C   0  0  0  0  0  0  0  0  0  0  0  0
    5.6452   -4.6453    0.0000 C   0  0  0  0  0  0  0  0  0  0  0  0
    7.3274   -2.5680    0.0000 N   0  0  0  0  0  0  0  0  0  0  0  0
    8.8192   -2.4112    0.0000 C   0  0  0  0  0  0  0  0  0  0  0  0
    9.7008   -1.1977    0.0000 C   0  0  0  0  0  0  0  0  0  0  0  0
   11.1926   -1.3545    0.0000 C   0  0  0  0  0  0  0  0  0  0  0  0
   11.8027   -2.7248    0.0000 C   0  0  0  0  0  0  0  0  0  0  0  0
   13.2945   -2.8816    0.0000 O   0  0  0  0  0  0  0  0  0  0  0  0
   13.9046   -4.2519    0.0000 C   0  0  0  0  0  0  0  0  0  0  0  0
   10.9210   -3.9383    0.0000 C   0  0  0  0  0  0  0  0  0  0  0  0
    9.4293   -3.7815    0.0000 C   0  0  0  0  0  0  0  0  0  0  0  0
    3.3037   -6.8202    0.0000 C   0  0  0  0  0  0  0  0  0  0  0  0
    2.0046   -7.5702    0.0000 N   0  0  0  0  0  0  0  0  0  0  0  0
    0.8899   -6.5665    0.0000 C   0  0  0  0  0  0  0  0  0  0  0  0
    1.5000   -5.1962    0.0000 C   0  0  0  0  0  0  0  0  0  0  0  0
    0.7500   -3.8971    0.0000 C   0  0  0  0  0  0  0  0  0  0  0  0
    1.5000   -2.5981    0.0000 C   0  0  0  0  0  0  0  0  0  0  0  0
    0.7500   -1.2990    0.0000 C   0  0  0  0  0  0  0  0  0  0  0  0
    1.5000    0.0000    0.0000 C   0  0  0  0  0  0  0  0  0  0  0  0
    0.7500    1.2990    0.0000 C   0  0  0  0  0  0  0  0  0  0  0  0
   -0.7500    1.2990    0.0000 C   0  0  0  0  0  0  0  0  0  0  0  0
   -1.5000    0.0000    0.0000 C   0  0  0  0  0  0  0  0  0  0  0  0
   -0.7500   -1.2990    0.0000 C   0  0  0  0  0  0  0  0  0  0  0  0
   -1.5000   -2.5981    0.0000 N   0  0  0  0  0  0  0  0  0  0  0  0
   -0.7500   -3.8971    0.0000 C   0  0  0  0  0  0  0  0  0  0  0  0
   -1.5000   -5.1962    0.0000 O   0  0  0  0  0  0  0  0  0  0  0  0
   -3.0000   -5.1962    0.0000 C   0  0  0  0  0  0  0  0  0  0  0  0
    2.9918   -5.3529    0.0000 N   0  0  0  0  0  0  0  0  0  0  0  0
  1  2  1  0
  2  3  1  0
  3  4  1  0
  4  5  1  0
  5  6  1  0
  6  7  1  0
  7  8  2  0
  7  9  1  0
  9 10  1  0
  9 11  1  0
 11 12  2  0
 12 13  1  0
 12 14  1  0
 14 15  1  0
 15 16  2  0
 16 17  1  0
 17 18  2  0
 18 19  1  0
 19 20  1  0
 18 21  1  0
 21 22  2  0
  5 23  1  0
 23 24  2  0
 24 25  1  0
 25 26  2  0
 26 27  1  0
 27 28  2  0
 28 29  1  0
 29 30  2  0
 30 31  1  0
 31 32  2  0
 32 33  1  0
 33 34  2  0
 34 35  1  0
 35 36  2  0
 36 37  1  0
 37 38  1  0
 26 39  1  0
 22 11  1  0
 39 23  1  0
 22 15  1  0
 36 27  1  0
 34 29  1  0
M  END
>  <molecule_chembl_id>  (879) 
CHEMBL4872186

>  <canonical_smiles>  (879) 
CCCCC(NC(=O)C(C)c1c(C)[nH]c2ccc(OC)cc12)c1ncc(-c2cc3ccccc3nc2OC)[nH]1

>  <pchembl_value_mean>  (879) 
6.92

>  <document_chembl_id>  (879) 
CHEMBL4814059

$$$$

     RDKit          2D

 42 46  0  0  0  0  0  0  0  0999 V2000
    1.9979  -12.6093    0.0000 C   0  0  0  0  0  0  0  0  0  0  0  0
    2.3097  -11.1421    0.0000 O   0  0  0  0  0  0  0  0  0  0  0  0
    1.1950  -10.1384    0.0000 C   0  0  0  0  0  0  0  0  0  0  0  0
   -0.2316  -10.6019    0.0000 C   0  0  0  0  0  0  0  0  0  0  0  0
   -1.3463   -9.5982    0.0000 C   0  0  0  0  0  0  0  0  0  0  0  0
   -1.0344   -8.1310    0.0000 C   0  0  0  0  0  0  0  0  0  0  0  0
   -2.1491   -7.1273    0.0000 C   0  0  0  0  0  0  0  0  0  0  0  0
   -3.5757   -7.5908    0.0000 O   0  0  0  0  0  0  0  0  0  0  0  0
   -1.8373   -5.6601    0.0000 N   0  0  0  0  0  0  0  0  0  0  0  0
   -2.9520   -4.6564    0.0000 C   0  0  0  0  0  0  0  0  0  0  0  0
   -2.6401   -3.1891    0.0000 C   0  0  0  0  0  0  0  0  0  0  0  0
   -1.2135   -2.7256    0.0000 C   0  0  0  0  0  0  0  0  0  0  0  0
   -0.0000   -3.6073    0.0000 C   0  0  0  0  0  0  0  0  0  0  0  0
    1.2135   -2.7256    0.0000 N   0  0  0  0  0  0  0  0  0  0  0  0
    0.7500   -1.2990    0.0000 C   0  0  0  0  0  0  0  0  0  0  0  0
    1.5000    0.0000    0.0000 C   0  0  0  0  0  0  0  0  0  0  0  0
    0.7500    1.2990    0.0000 C   0  0  0  0  0  0  0  0  0  0  0  0
   -0.7500    1.2990    0.0000 C   0  0  0  0  0  0  0  0  0  0  0  0
   -1.5000    0.0000    0.0000 C   0  0  0  0  0  0  0  0  0  0  0  0
   -0.7500   -1.2990    0.0000 C   0  0  0  0  0  0  0  0  0  0  0  0
   -4.3786   -5.1199    0.0000 C   0  0  0  0  0  0  0  0  0  0  0  0
   -5.4933   -4.1162    0.0000 O   0  0  0  0  0  0  0  0  0  0  0  0
   -4.6904   -6.5871    0.0000 N   0  0  0  0  0  0  0  0  0  0  0  0
   -6.1170   -7.0506    0.0000 C   0  0  0  0  0  0  0  0  0  0  0  0
   -7.2317   -6.0469    0.0000 C   0  0  0  0  0  0  0  0  0  0  0  0
   -8.6583   -6.5105    0.0000 C   0  0  0  0  0  0  0  0  0  0  0  0
   -8.9702   -7.9777    0.0000 C   0  0  0  0  0  0  0  0  0  0  0  0
  -10.3968   -8.4412    0.0000 C   0  0  0  0  0  0  0  0  0  0  0  0
  -10.7086   -9.9084    0.0000 O   0  0  0  0  0  0  0  0  0  0  0  0
  -11.5115   -7.4375    0.0000 N   0  0  0  0  0  0  0  0  0  0  0  0
  -12.9381   -7.9010    0.0000 C   0  0  0  0  0  0  0  0  0  0  0  0
  -14.0528   -6.8974    0.0000 C   0  0  0  0  0  0  0  0  0  0  0  0
  -15.4794   -7.3609    0.0000 C   0  0  0  0  0  0  0  0  0  0  0  0
  -15.7912   -8.8281    0.0000 C   0  0  0  0  0  0  0  0  0  0  0  0
  -17.2178   -9.2916    0.0000 F   0  0  0  0  0  0  0  0  0  0  0  0
  -14.6765   -9.8318    0.0000 C   0  0  0  0  0  0  0  0  0  0  0  0
  -13.2499   -9.3683    0.0000 C   0  0  0  0  0  0  0  0  0  0  0  0
  -12.1352  -10.3720    0.0000 N   0  0  0  0  0  0  0  0  0  0  0  0
   -7.8555   -8.9814    0.0000 C   0  0  0  0  0  0  0  0  0  0  0  0
   -6.4289   -8.5179    0.0000 C   0  0  0  0  0  0  0  0  0  0  0  0
    0.3922   -7.6675    0.0000 C   0  0  0  0  0  0  0  0  0  0  0  0
    1.5069   -8.6712    0.0000 C   0  0  0  0  0  0  0  0  0  0  0  0
  1  2  1  0
  2  3  1  0
  3  4  2  0
  4  5  1  0
  5  6  2  0
  6  7  1  0
  7  8  2  0
  7  9  1  0
  9 10  1  0
 10 11  1  0
 11 12  1  0
 12 13  2  0
 13 14  1  0
 14 15  1  0
 15 16  2  0
 16 17  1  0
 17 18  2  0
 18 19  1  0
 19 20  2  0
 10 21  1  0
 21 22  2  0
 21 23  1  0
 23 24  1  0
 24 25  2  0
 25 26  1  0
 26 27  2  0
 27 28  1  0
 28 29  2  0
 28 30  1  0
 30 31  1  0
 31 32  2  0
 32 33  1  0
 33 34  2  0
 34 35  1  0
 34 36  1  0
 36 37  2  0
 37 38  1  0
 27 39  1  0
 39 40  2  0
  6 41  1  0
 41 42  2  0
 42  3  1  0
 20 12  1  0
 40 24  1  0
 20 15  1  0
 37 31  1  0
M  END
>  <molecule_chembl_id>  (880) 
CHEMBL4095245

>  <canonical_smiles>  (880) 
COc1ccc(C(=O)NC(Cc2c[nH]c3ccccc23)C(=O)Nc2ccc(C(=O)Nc3ccc(F)cc3N)cc2)cc1

>  <pchembl_value_mean>  (880) 
6.92

>  <document_chembl_id>  (880) 
CHEMBL4020724

$$$$

     RDKit          2D

 19 19  0  0  0  0  0  0  0  0999 V2000
   12.7500   -3.8971    0.0000 O   0  0  0  0  0  0  0  0  0  0  0  0
   12.0000   -5.1962    0.0000 C   0  0  0  0  0  0  0  0  0  0  0  0
   10.5000   -5.1962    0.0000 C   0  0  0  0  0  0  0  0  0  0  0  0
    9.7500   -3.8971    0.0000 C   0  0  0  0  0  0  0  0  0  0  0  0
    8.2500   -3.8971    0.0000 C   0  0  0  0  0  0  0  0  0  0  0  0
    7.5000   -2.5981    0.0000 C   0  0  0  0  0  0  0  0  0  0  0  0
    6.0000   -2.5981    0.0000 C   0  0  0  0  0  0  0  0  0  0  0  0
    5.2500   -1.2990    0.0000 C   0  0  0  0  0  0  0  0  0  0  0  0
    3.7500   -1.2990    0.0000 C   0  0  0  0  0  0  0  0  0  0  0  0
    3.0000   -2.5981    0.0000 O   0  0  0  0  0  0  0  0  0  0  0  0
    3.0000    0.0000    0.0000 N   0  0  0  0  0  0  0  0  0  0  0  0
    1.5000    0.0000    0.0000 C   0  0  0  0  0  0  0  0  0  0  0  0
    0.7500   -1.2990    0.0000 C   0  0  0  0  0  0  0  0  0  0  0  0
   -0.7500   -1.2990    0.0000 C   0  0  0  0  0  0  0  0  0  0  0  0
   -1.5000    0.0000    0.0000 C   0  0  0  0  0  0  0  0  0  0  0  0
   -0.7500    1.2990    0.0000 C   0  0  0  0  0  0  0  0  0  0  0  0
    0.7500    1.2990    0.0000 C   0  0  0  0  0  0  0  0  0  0  0  0
   12.7500   -6.4952    0.0000 N   0  0  0  0  0  0  0  0  0  0  0  0
   14.2500   -6.4952    0.0000 O   0  0  0  0  0  0  0  0  0  0  0  0
  1  2  2  0
  2  3  1  0
  3  4  1  0
  4  5  1  0
  5  6  1  0
  6  7  1  0
  7  8  1  0
  8  9  1  0
  9 10  2  0
  9 11  1  0
 11 12  1  0
 12 13  2  0
 13 14  1  0
 14 15  2  0
 15 16  1  0
 16 17  2  0
  2 18  1  0
 18 19  1  0
 17 12  1  0
M  END
>  <molecule_chembl_id>  (881) 
CHEMBL98

>  <canonical_smiles>  (881) 
O=C(CCCCCCC(=O)Nc1ccccc1)NO

>  <pchembl_value_mean>  (881) 
6.929007

>  <document_chembl_id>  (881) 
CHEMBL1137945

$$$$

     RDKit          2D

 32 34  0  0  0  0  0  0  0  0999 V2000
   -4.2606  -14.8714    0.0000 C   0  0  0  0  0  0  0  0  0  0  0  0
   -4.1038  -13.3796    0.0000 C   0  0  0  0  0  0  0  0  0  0  0  0
   -2.7335  -12.7695    0.0000 C   0  0  0  0  0  0  0  0  0  0  0  0
   -1.5200  -13.6512    0.0000 O   0  0  0  0  0  0  0  0  0  0  0  0
   -2.5767  -11.2778    0.0000 C   0  0  0  0  0  0  0  0  0  0  0  0
   -1.2064  -10.6676    0.0000 C   0  0  0  0  0  0  0  0  0  0  0  0
   -1.0496   -9.1759    0.0000 C   0  0  0  0  0  0  0  0  0  0  0  0
    0.3207   -8.5658    0.0000 C   0  0  0  0  0  0  0  0  0  0  0  0
    0.4775   -7.0740    0.0000 C   0  0  0  0  0  0  0  0  0  0  0  0
    1.8478   -6.4639    0.0000 C   0  0  0  0  0  0  0  0  0  0  0  0
    3.0613   -7.3456    0.0000 N   0  0  0  0  0  0  0  0  0  0  0  0
    2.9046   -8.8373    0.0000 C   0  0  0  0  0  0  0  0  0  0  0  0
    1.5342   -9.4474    0.0000 O   0  0  0  0  0  0  0  0  0  0  0  0
    4.1181   -9.7190    0.0000 C   0  0  0  0  0  0  0  0  0  0  0  0
    4.3527  -11.2005    0.0000 C   0  0  0  0  0  0  0  0  0  0  0  0
    5.8343  -10.9659    0.0000 N   0  0  0  0  0  0  0  0  0  0  0  0
    7.0478  -11.8476    0.0000 C   0  0  0  0  0  0  0  0  0  0  0  0
    5.5996   -9.4844    0.0000 C   0  0  0  0  0  0  0  0  0  0  0  0
    2.0046   -4.9721    0.0000 C   0  0  0  0  0  0  0  0  0  0  0  0
    0.8899   -3.9684    0.0000 N   0  0  0  0  0  0  0  0  0  0  0  0
    1.5000   -2.5981    0.0000 C   0  0  0  0  0  0  0  0  0  0  0  0
    0.7500   -1.2990    0.0000 C   0  0  0  0  0  0  0  0  0  0  0  0
    1.5000    0.0000    0.0000 C   0  0  0  0  0  0  0  0  0  0  0  0
    0.7500    1.2990    0.0000 C   0  0  0  0  0  0  0  0  0  0  0  0
   -0.7500    1.2990    0.0000 C   0  0  0  0  0  0  0  0  0  0  0  0
   -1.5000    2.5981    0.0000 F   0  0  0  0  0  0  0  0  0  0  0  0
   -1.5000    0.0000    0.0000 C   0  0  0  0  0  0  0  0  0  0  0  0
   -0.7500   -1.2990    0.0000 C   0  0  0  0  0  0  0  0  0  0  0  0
    2.9918   -2.7549    0.0000 N   0  0  0  0  0  0  0  0  0  0  0  0
    3.3037   -4.2221    0.0000 C   0  0  0  0  0  0  0  0  0  0  0  0
    4.6740   -4.8322    0.0000 C   0  0  0  0  0  0  0  0  0  0  0  0
    6.0443   -5.4423    0.0000 N   0  0  0  0  0  0  0  0  0  0  0  0
  1  2  1  0
  2  3  1  0
  3  4  2  0
  3  5  1  0
  5  6  1  0
  6  7  1  0
  7  8  1  0
  8  9  1  0
  9 10  1  0
 10 11  1  0
 11 12  1  0
 12 13  2  0
 12 14  1  0
 14 15  1  0
 15 16  1  0
 16 17  1  0
 16 18  1  0
 10 19  1  0
 19 20  1  0
 20 21  1  0
 21 22  1  0
 22 23  2  0
 23 24  1  0
 24 25  2  0
 25 26  1  0
 25 27  1  0
 27 28  2  0
 21 29  2  0
 29 30  1  0
 30 31  1  0
 31 32  3  0
 18 14  1  0
 30 19  2  0
 28 22  1  0
M  END
>  <molecule_chembl_id>  (882) 
CHEMBL4754763

>  <canonical_smiles>  (882) 
CCC(=O)CCCCCC(NC(=O)C1CN(C)C1)c1[nH]c(-c2ccc(F)cc2)nc1C#N

>  <pchembl_value_mean>  (882) 
6.93

>  <document_chembl_id>  (882) 
CHEMBL4665726

$$$$

     RDKit          2D

 24 26  0  0  0  0  0  0  0  0999 V2000
   -7.5000   -5.1962    0.0000 O   0  0  0  0  0  0  0  0  0  0  0  0
   -6.0000   -5.1962    0.0000 C   0  0  0  0  0  0  0  0  0  0  0  0
   -5.2500   -6.4952    0.0000 N   0  0  0  0  0  0  0  0  0  0  0  0
   -6.0000   -7.7942    0.0000 O   0  0  0  0  0  0  0  0  0  0  0  0
   -5.2500   -3.8971    0.0000 C   0  0  0  0  0  0  0  0  0  0  0  0
   -3.7500   -3.8971    0.0000 C   0  0  0  0  0  0  0  0  0  0  0  0
   -3.0000   -2.5981    0.0000 N   0  0  0  0  0  0  0  0  0  0  0  0
   -3.7500   -1.2990    0.0000 C   0  0  0  0  0  0  0  0  0  0  0  0
   -3.0000    0.0000    0.0000 N   0  0  0  0  0  0  0  0  0  0  0  0
   -3.7500    1.2990    0.0000 C   0  0  0  0  0  0  0  0  0  0  0  0
   -2.6009    2.2632    0.0000 C   0  0  0  0  0  0  0  0  0  0  0  0
   -1.1914    1.7502    0.0000 C   0  0  0  0  0  0  0  0  0  0  0  0
   -0.0423    2.7144    0.0000 C   0  0  0  0  0  0  0  0  0  0  0  0
   -0.3028    4.1916    0.0000 C   0  0  0  0  0  0  0  0  0  0  0  0
    0.8463    5.1558    0.0000 C   0  0  0  0  0  0  0  0  0  0  0  0
    1.9953    6.1199    0.0000 F   0  0  0  0  0  0  0  0  0  0  0  0
    1.8104    4.0067    0.0000 F   0  0  0  0  0  0  0  0  0  0  0  0
   -0.1179    6.3048    0.0000 F   0  0  0  0  0  0  0  0  0  0  0  0
   -1.7123    4.7046    0.0000 C   0  0  0  0  0  0  0  0  0  0  0  0
   -2.8614    3.7404    0.0000 C   0  0  0  0  0  0  0  0  0  0  0  0
   -4.8991    2.2632    0.0000 C   0  0  0  0  0  0  0  0  0  0  0  0
   -5.1595    0.7860    0.0000 C   0  0  0  0  0  0  0  0  0  0  0  0
   -5.2500   -1.2990    0.0000 N   0  0  0  0  0  0  0  0  0  0  0  0
   -6.0000   -2.5981    0.0000 C   0  0  0  0  0  0  0  0  0  0  0  0
  1  2  2  0
  2  3  1  0
  3  4  1  0
  2  5  1  0
  5  6  2  0
  6  7  1  0
  7  8  2  0
  8  9  1  0
  9 10  1  0
 10 11  1  0
 11 12  2  0
 12 13  1  0
 13 14  2  0
 14 15  1  0
 15 16  1  0
 15 17  1  0
 15 18  1  0
 14 19  1  0
 19 20  2  0
 10 21  1  0
 21 22  1  0
  8 23  1  0
 23 24  2  0
 24  5  1  0
 22 10  1  0
 20 11  1  0
M  END
>  <molecule_chembl_id>  (883) 
CHEMBL3656004

>  <canonical_smiles>  (883) 
O=C(NO)c1cnc(NC2(c3ccc(C(F)(F)F)cc3)CC2)nc1

>  <pchembl_value_mean>  (883) 
6.93

>  <document_chembl_id>  (883) 
CHEMBL3639071

$$$$

     RDKit          2D

 42 46  0  0  0  0  0  0  0  0999 V2000
   -4.3786   -5.1199    0.0000 C   0  0  0  0  0  0  0  0  0  0  0  0
   -2.9520   -4.6564    0.0000 C   0  0  0  0  0  0  0  0  0  0  0  0
   -2.6401   -3.1891    0.0000 C   0  0  0  0  0  0  0  0  0  0  0  0
   -1.2135   -2.7256    0.0000 C   0  0  0  0  0  0  0  0  0  0  0  0
   -0.0000   -3.6073    0.0000 N   0  0  0  0  0  0  0  0  0  0  0  0
    1.2135   -2.7256    0.0000 N   0  0  0  0  0  0  0  0  0  0  0  0
    2.6401   -3.1891    0.0000 C   0  0  0  0  0  0  0  0  0  0  0  0
    0.7500   -1.2990    0.0000 C   0  0  0  0  0  0  0  0  0  0  0  0
    1.5000    0.0000    0.0000 C   0  0  0  0  0  0  0  0  0  0  0  0
    3.0000    0.0000    0.0000 O   0  0  0  0  0  0  0  0  0  0  0  0
    0.7500    1.2990    0.0000 N   0  0  0  0  0  0  0  0  0  0  0  0
   -0.7500    1.2990    0.0000 C   0  0  0  0  0  0  0  0  0  0  0  0
   -1.5000    2.5981    0.0000 C   0  0  0  0  0  0  0  0  0  0  0  0
   -0.7500    3.8971    0.0000 C   0  0  0  0  0  0  0  0  0  0  0  0
   -1.5000    5.1962    0.0000 C   0  0  0  0  0  0  0  0  0  0  0  0
   -0.7500    6.4952    0.0000 S   0  0  0  0  0  0  0  0  0  0  0  0
    0.5490    5.7452    0.0000 O   0  0  0  0  0  0  0  0  0  0  0  0
   -2.0490    7.2452    0.0000 O   0  0  0  0  0  0  0  0  0  0  0  0
    0.0000    7.7942    0.0000 N   0  0  0  0  0  0  0  0  0  0  0  0
    1.5000    7.7942    0.0000 C   0  0  0  0  0  0  0  0  0  0  0  0
    2.2500    9.0933    0.0000 C   0  0  0  0  0  0  0  0  0  0  0  0
    1.5000   10.3923    0.0000 N   0  0  0  0  0  0  0  0  0  0  0  0
    2.2500   11.6913    0.0000 C   0  0  0  0  0  0  0  0  0  0  0  0
    3.7500   11.6913    0.0000 N   0  0  0  0  0  0  0  0  0  0  0  0
    4.5000   12.9904    0.0000 C   0  0  0  0  0  0  0  0  0  0  0  0
    3.7500   14.2894    0.0000 C   0  0  0  0  0  0  0  0  0  0  0  0
    4.5000   15.5885    0.0000 C   0  0  0  0  0  0  0  0  0  0  0  0
    3.7500   16.8875    0.0000 O   0  0  0  0  0  0  0  0  0  0  0  0
    6.0000   15.5885    0.0000 N   0  0  0  0  0  0  0  0  0  0  0  0
    6.7500   16.8875    0.0000 O   0  0  0  0  0  0  0  0  0  0  0  0
    2.2500   14.2894    0.0000 C   0  0  0  0  0  0  0  0  0  0  0  0
    1.5000   12.9904    0.0000 N   0  0  0  0  0  0  0  0  0  0  0  0
   -0.0000   10.3923    0.0000 C   0  0  0  0  0  0  0  0  0  0  0  0
   -0.7500    9.0933    0.0000 C   0  0  0  0  0  0  0  0  0  0  0  0
   -3.0000    5.1962    0.0000 C   0  0  0  0  0  0  0  0  0  0  0  0
   -3.7500    3.8971    0.0000 C   0  0  0  0  0  0  0  0  0  0  0  0
   -3.0000    2.5981    0.0000 C   0  0  0  0  0  0  0  0  0  0  0  0
   -3.7500    1.2990    0.0000 O   0  0  0  0  0  0  0  0  0  0  0  0
   -5.2500    1.2990    0.0000 C   0  0  0  0  0  0  0  0  0  0  0  0
   -6.0000    0.0000    0.0000 C   0  0  0  0  0  0  0  0  0  0  0  0
   -1.5000    0.0000    0.0000 N   0  0  0  0  0  0  0  0  0  0  0  0
   -0.7500   -1.2990    0.0000 C   0  0  0  0  0  0  0  0  0  0  0  0
  1  2  1  0
  2  3  1  0
  3  4  1  0
  4  5  2  0
  5  6  1  0
  6  7  1  0
  6  8  1  0
  8  9  1  0
  9 10  2  0
  9 11  1  0
 11 12  1  0
 12 13  1  0
 13 14  2  0
 14 15  1  0
 15 16  1  0
 16 17  2  0
 16 18  2  0
 16 19  1  0
 19 20  1  0
 20 21  1  0
 21 22  1  0
 22 23  1  0
 23 24  2  0
 24 25  1  0
 25 26  2  0
 26 27  1  0
 27 28  2  0
 27 29  1  0
 29 30  1  0
 26 31  1  0
 31 32  2  0
 22 33  1  0
 33 34  1  0
 15 35  2  0
 35 36  1  0
 36 37  2  0
 37 38  1  0
 38 39  1  0
 39 40  1  0
 12 41  2  0
 41 42  1  0
 42  4  1  0
 42  8  2  0
 37 13  1  0
 34 19  1  0
 32 23  1  0
M  END
>  <molecule_chembl_id>  (884) 
CHEMBL3970984

>  <canonical_smiles>  (884) 
CCCc1nn(C)c2c(=O)[nH]c(-c3cc(S(=O)(=O)N4CCN(c5ncc(C(=O)NO)cn5)CC4)ccc3OCC)nc12

>  <pchembl_value_mean>  (884) 
6.93

>  <document_chembl_id>  (884) 
CHEMBL3860059

$$$$

     RDKit          2D

 21 23  0  0  0  0  0  0  0  0999 V2000
    3.7500    1.2990    0.0000 O   0  0  0  0  0  0  0  0  0  0  0  0
    3.0000    0.0000    0.0000 C   0  0  0  0  0  0  0  0  0  0  0  0
    3.7500   -1.2990    0.0000 N   0  0  0  0  0  0  0  0  0  0  0  0
    5.2500   -1.2990    0.0000 O   0  0  0  0  0  0  0  0  0  0  0  0
    1.5000    0.0000    0.0000 C   0  0  0  0  0  0  0  0  0  0  0  0
    0.7500   -1.2990    0.0000 C   0  0  0  0  0  0  0  0  0  0  0  0
   -0.7500   -1.2990    0.0000 N   0  0  0  0  0  0  0  0  0  0  0  0
   -1.5000    0.0000    0.0000 C   0  0  0  0  0  0  0  0  0  0  0  0
   -3.0000    0.0000    0.0000 N   0  0  0  0  0  0  0  0  0  0  0  0
   -3.7500    1.2990    0.0000 C   0  0  0  0  0  0  0  0  0  0  0  0
   -5.1595    0.7860    0.0000 C   0  0  0  0  0  0  0  0  0  0  0  0
   -5.4200   -0.6912    0.0000 C   0  0  0  0  0  0  0  0  0  0  0  0
   -6.8296   -1.2042    0.0000 C   0  0  0  0  0  0  0  0  0  0  0  0
   -7.9786   -0.2401    0.0000 C   0  0  0  0  0  0  0  0  0  0  0  0
   -7.7181    1.2372    0.0000 C   0  0  0  0  0  0  0  0  0  0  0  0
   -8.8672    2.2013    0.0000 F   0  0  0  0  0  0  0  0  0  0  0  0
   -6.3086    1.7502    0.0000 C   0  0  0  0  0  0  0  0  0  0  0  0
   -4.0105    2.7762    0.0000 C   0  0  0  0  0  0  0  0  0  0  0  0
   -2.6009    2.2632    0.0000 C   0  0  0  0  0  0  0  0  0  0  0  0
   -0.7500    1.2990    0.0000 N   0  0  0  0  0  0  0  0  0  0  0  0
    0.7500    1.2990    0.0000 C   0  0  0  0  0  0  0  0  0  0  0  0
  1  2  2  0
  2  3  1  0
  3  4  1  0
  2  5  1  0
  5  6  2  0
  6  7  1  0
  7  8  2  0
  8  9  1  0
  9 10  1  0
 10 11  1  0
 11 12  2  0
 12 13  1  0
 13 14  2  0
 14 15  1  0
 15 16  1  0
 15 17  2  0
 10 18  1  0
 18 19  1  0
  8 20  1  0
 20 21  2  0
 21  5  1  0
 19 10  1  0
 17 11  1  0
M  END
>  <molecule_chembl_id>  (885) 
CHEMBL3655964

>  <canonical_smiles>  (885) 
O=C(NO)c1cnc(NC2(c3cccc(F)c3)CC2)nc1

>  <pchembl_value_mean>  (885) 
6.94

>  <document_chembl_id>  (885) 
CHEMBL3639071

$$$$

     RDKit          2D

 24 26  0  0  0  0  0  0  0  0999 V2000
    4.6740   -4.8322    0.0000 C   0  0  0  0  0  0  0  0  0  0  0  0
    3.3037   -4.2221    0.0000 C   0  0  0  0  0  0  0  0  0  0  0  0
    2.9918   -2.7549    0.0000 C   0  0  0  0  0  0  0  0  0  0  0  0
    1.5000   -2.5981    0.0000 C   0  0  0  0  0  0  0  0  0  0  0  0
    0.7500   -1.2990    0.0000 C   0  0  0  0  0  0  0  0  0  0  0  0
    1.5000    0.0000    0.0000 C   0  0  0  0  0  0  0  0  0  0  0  0
    0.7500    1.2990    0.0000 C   0  0  0  0  0  0  0  0  0  0  0  0
   -0.7500    1.2990    0.0000 C   0  0  0  0  0  0  0  0  0  0  0  0
   -1.5000    2.5981    0.0000 F   0  0  0  0  0  0  0  0  0  0  0  0
   -1.5000    0.0000    0.0000 C   0  0  0  0  0  0  0  0  0  0  0  0
   -0.7500   -1.2990    0.0000 C   0  0  0  0  0  0  0  0  0  0  0  0
    0.8899   -3.9684    0.0000 N   0  0  0  0  0  0  0  0  0  0  0  0
    2.0046   -4.9721    0.0000 N   0  0  0  0  0  0  0  0  0  0  0  0
    1.8478   -6.4639    0.0000 C   0  0  0  0  0  0  0  0  0  0  0  0
    0.4775   -7.0740    0.0000 C   0  0  0  0  0  0  0  0  0  0  0  0
   -0.7360   -6.1923    0.0000 C   0  0  0  0  0  0  0  0  0  0  0  0
   -2.1063   -6.8024    0.0000 C   0  0  0  0  0  0  0  0  0  0  0  0
   -2.2631   -8.2942    0.0000 C   0  0  0  0  0  0  0  0  0  0  0  0
   -3.6335   -8.9043    0.0000 C   0  0  0  0  0  0  0  0  0  0  0  0
   -3.7902  -10.3961    0.0000 O   0  0  0  0  0  0  0  0  0  0  0  0
   -4.8470   -8.0226    0.0000 N   0  0  0  0  0  0  0  0  0  0  0  0
   -6.2173   -8.6327    0.0000 O   0  0  0  0  0  0  0  0  0  0  0  0
   -1.0496   -9.1759    0.0000 C   0  0  0  0  0  0  0  0  0  0  0  0
    0.3207   -8.5658    0.0000 C   0  0  0  0  0  0  0  0  0  0  0  0
  1  2  1  0
  2  3  2  0
  3  4  1  0
  4  5  1  0
  5  6  2  0
  6  7  1  0
  7  8  2  0
  8  9  1  0
  8 10  1  0
 10 11  2  0
  4 12  2  0
 12 13  1  0
 13 14  1  0
 14 15  1  0
 15 16  2  0
 16 17  1  0
 17 18  2  0
 18 19  1  0
 19 20  2  0
 19 21  1  0
 21 22  1  0
 18 23  1  0
 23 24  2  0
 13  2  1  0
 24 15  1  0
 11  5  1  0
M  END
>  <molecule_chembl_id>  (886) 
CHEMBL4225171

>  <canonical_smiles>  (886) 
Cc1cc(-c2ccc(F)cc2)nn1Cc1ccc(C(=O)NO)cc1

>  <pchembl_value_mean>  (886) 
6.94

>  <document_chembl_id>  (886) 
CHEMBL4219109

$$$$

     RDKit          2D

 37 41  0  0  0  0  0  0  0  0999 V2000
   -6.9204   -5.2665    0.0000 C   0  0  0  0  0  0  0  0  0  0  0  0
   -5.6213   -4.5165    0.0000 C   0  0  0  0  0  0  0  0  0  0  0  0
   -5.6213   -3.0165    0.0000 O   0  0  0  0  0  0  0  0  0  0  0  0
   -4.3223   -5.2665    0.0000 N   0  0  0  0  0  0  0  0  0  0  0  0
   -4.1655   -6.7583    0.0000 C   0  0  0  0  0  0  0  0  0  0  0  0
   -5.2802   -7.7620    0.0000 N   0  0  0  0  0  0  0  0  0  0  0  0
   -4.9684   -9.2292    0.0000 C   0  0  0  0  0  0  0  0  0  0  0  0
   -6.0831  -10.2329    0.0000 C   0  0  0  0  0  0  0  0  0  0  0  0
   -7.5097   -9.7693    0.0000 C   0  0  0  0  0  0  0  0  0  0  0  0
   -8.6244  -10.7730    0.0000 C   0  0  0  0  0  0  0  0  0  0  0  0
   -8.3125  -12.2403    0.0000 C   0  0  0  0  0  0  0  0  0  0  0  0
   -9.4272  -13.2440    0.0000 C   0  0  0  0  0  0  0  0  0  0  0  0
   -9.1154  -14.7112    0.0000 O   0  0  0  0  0  0  0  0  0  0  0  0
  -10.8538  -12.7804    0.0000 N   0  0  0  0  0  0  0  0  0  0  0  0
  -11.9685  -13.7841    0.0000 C   0  0  0  0  0  0  0  0  0  0  0  0
  -13.3951  -13.3206    0.0000 C   0  0  0  0  0  0  0  0  0  0  0  0
  -14.5098  -14.3243    0.0000 C   0  0  0  0  0  0  0  0  0  0  0  0
  -14.1980  -15.7915    0.0000 C   0  0  0  0  0  0  0  0  0  0  0  0
  -12.7714  -16.2550    0.0000 C   0  0  0  0  0  0  0  0  0  0  0  0
  -11.6567  -15.2514    0.0000 C   0  0  0  0  0  0  0  0  0  0  0  0
  -10.2301  -15.7149    0.0000 N   0  0  0  0  0  0  0  0  0  0  0  0
   -6.8859  -12.7038    0.0000 C   0  0  0  0  0  0  0  0  0  0  0  0
   -5.7712  -11.7001    0.0000 C   0  0  0  0  0  0  0  0  0  0  0  0
   -2.6983   -7.0701    0.0000 N   0  0  0  0  0  0  0  0  0  0  0  0
   -1.9483   -5.7711    0.0000 C   0  0  0  0  0  0  0  0  0  0  0  0
   -0.4565   -5.6143    0.0000 O   0  0  0  0  0  0  0  0  0  0  0  0
   -2.9520   -4.6564    0.0000 C   0  0  0  0  0  0  0  0  0  0  0  0
   -2.6401   -3.1891    0.0000 C   0  0  0  0  0  0  0  0  0  0  0  0
   -1.2135   -2.7256    0.0000 C   0  0  0  0  0  0  0  0  0  0  0  0
   -0.0000   -3.6073    0.0000 C   0  0  0  0  0  0  0  0  0  0  0  0
    1.2135   -2.7256    0.0000 N   0  0  0  0  0  0  0  0  0  0  0  0
    0.7500   -1.2990    0.0000 C   0  0  0  0  0  0  0  0  0  0  0  0
    1.5000    0.0000    0.0000 C   0  0  0  0  0  0  0  0  0  0  0  0
    0.7500    1.2990    0.0000 C   0  0  0  0  0  0  0  0  0  0  0  0
   -0.7500    1.2990    0.0000 C   0  0  0  0  0  0  0  0  0  0  0  0
   -1.5000    0.0000    0.0000 C   0  0  0  0  0  0  0  0  0  0  0  0
   -0.7500   -1.2990    0.0000 C   0  0  0  0  0  0  0  0  0  0  0  0
  1  2  1  0
  2  3  2  0
  2  4  1  0
  4  5  1  0
  5  6  1  0
  6  7  1  0
  7  8  1  0
  8  9  2  0
  9 10  1  0
 10 11  2  0
 11 12  1  0
 12 13  2  0
 12 14  1  0
 14 15  1  0
 15 16  2  0
 16 17  1  0
 17 18  2  0
 18 19  1  0
 19 20  2  0
 20 21  1  0
 11 22  1  0
 22 23  2  0
  5 24  2  0
 24 25  1  0
 25 26  2  0
 25 27  1  0
 27 28  1  0
 28 29  1  0
 29 30  2  0
 30 31  1  0
 31 32  1  0
 32 33  2  0
 33 34  1  0
 34 35  2  0
 35 36  1  0
 36 37  2  0
 27  4  1  0
 37 29  1  0
 23  8  1  0
 37 32  1  0
 20 15  1  0
M  END
>  <molecule_chembl_id>  (887) 
CHEMBL2407732

>  <canonical_smiles>  (887) 
CC(=O)N1C(NCc2ccc(C(=O)Nc3ccccc3N)cc2)=NC(=O)C1Cc1c[nH]c2ccccc12

>  <pchembl_value_mean>  (887) 
6.94

>  <document_chembl_id>  (887) 
CHEMBL2407081

$$$$

     RDKit          2D

 26 28  0  0  0  0  0  0  0  0999 V2000
   -9.5623    5.5439    0.0000 O   0  0  0  0  0  0  0  0  0  0  0  0
   -8.1920    6.1540    0.0000 C   0  0  0  0  0  0  0  0  0  0  0  0
   -6.9785    5.2723    0.0000 C   0  0  0  0  0  0  0  0  0  0  0  0
   -7.1353    3.7805    0.0000 C   0  0  0  0  0  0  0  0  0  0  0  0
   -5.9217    2.8988    0.0000 C   0  0  0  0  0  0  0  0  0  0  0  0
   -6.0785    1.4071    0.0000 C   0  0  0  0  0  0  0  0  0  0  0  0
   -4.8650    0.5254    0.0000 C   0  0  0  0  0  0  0  0  0  0  0  0
   -5.0218   -0.9664    0.0000 C   0  0  0  0  0  0  0  0  0  0  0  0
   -3.8083   -1.8481    0.0000 N   0  0  0  0  0  0  0  0  0  0  0  0
   -3.8083   -3.3481    0.0000 C   0  0  0  0  0  0  0  0  0  0  0  0
   -5.0218   -4.2298    0.0000 O   0  0  0  0  0  0  0  0  0  0  0  0
   -2.3817   -3.8116    0.0000 N   0  0  0  0  0  0  0  0  0  0  0  0
   -1.5000   -2.5981    0.0000 C   0  0  0  0  0  0  0  0  0  0  0  0
   -0.7500   -3.8971    0.0000 C   0  0  0  0  0  0  0  0  0  0  0  0
    0.7500   -3.8971    0.0000 C   0  0  0  0  0  0  0  0  0  0  0  0
    1.5000   -2.5981    0.0000 C   0  0  0  0  0  0  0  0  0  0  0  0
    0.7500   -1.2990    0.0000 C   0  0  0  0  0  0  0  0  0  0  0  0
    1.5000    0.0000    0.0000 C   0  0  0  0  0  0  0  0  0  0  0  0
    0.7500    1.2990    0.0000 C   0  0  0  0  0  0  0  0  0  0  0  0
   -0.7500    1.2990    0.0000 C   0  0  0  0  0  0  0  0  0  0  0  0
   -1.5000    0.0000    0.0000 C   0  0  0  0  0  0  0  0  0  0  0  0
   -0.7500   -1.2990    0.0000 C   0  0  0  0  0  0  0  0  0  0  0  0
   -2.3817   -1.3846    0.0000 C   0  0  0  0  0  0  0  0  0  0  0  0
   -2.2970   -0.1725    0.0000 O   0  0  0  0  0  0  0  0  0  0  0  0
   -8.0352    7.6458    0.0000 N   0  0  0  0  0  0  0  0  0  0  0  0
   -9.2487    8.5274    0.0000 O   0  0  0  0  0  0  0  0  0  0  0  0
  1  2  2  0
  2  3  1  0
  3  4  1  0
  4  5  1  0
  5  6  1  0
  6  7  1  0
  7  8  1  0
  8  9  1  0
  9 10  1  0
 10 11  2  0
 10 12  1  0
 12 13  1  0
 13 14  1  0
 14 15  1  0
 15 16  1  0
 16 17  1  0
 17 18  2  0
 18 19  1  0
 19 20  2  0
 20 21  1  0
 21 22  2  0
 13 23  1  0
 23 24  2  0
  2 25  1  0
 25 26  1  0
 23  9  1  0
 22 13  1  0
 22 17  1  0
M  END
>  <molecule_chembl_id>  (888) 
CHEMBL4172557

>  <canonical_smiles>  (888) 
O=C(CCCCCCN1C(=O)NC2(CCCc3ccccc32)C1=O)NO

>  <pchembl_value_mean>  (888) 
6.94

>  <document_chembl_id>  (888) 
CHEMBL4145499

$$$$

     RDKit          2D

 31 33  0  0  0  0  0  0  0  0999 V2000
   12.7500   -3.8971    0.0000 O   0  0  0  0  0  0  0  0  0  0  0  0
   12.0000   -5.1962    0.0000 C   0  0  0  0  0  0  0  0  0  0  0  0
   10.5000   -5.1962    0.0000 C   0  0  0  0  0  0  0  0  0  0  0  0
    9.7500   -3.8971    0.0000 C   0  0  0  0  0  0  0  0  0  0  0  0
    8.2500   -3.8971    0.0000 C   0  0  0  0  0  0  0  0  0  0  0  0
    7.5000   -2.5981    0.0000 C   0  0  0  0  0  0  0  0  0  0  0  0
    6.0000   -2.5981    0.0000 C   0  0  0  0  0  0  0  0  0  0  0  0
    5.2500   -1.2990    0.0000 C   0  0  0  0  0  0  0  0  0  0  0  0
    3.7500   -1.2990    0.0000 C   0  0  0  0  0  0  0  0  0  0  0  0
    3.0000   -2.5981    0.0000 O   0  0  0  0  0  0  0  0  0  0  0  0
    3.0000    0.0000    0.0000 N   0  0  0  0  0  0  0  0  0  0  0  0
    1.5000    0.0000    0.0000 C   0  0  0  0  0  0  0  0  0  0  0  0
    0.7500   -1.2990    0.0000 C   0  0  0  0  0  0  0  0  0  0  0  0
   -0.7500   -1.2990    0.0000 C   0  0  0  0  0  0  0  0  0  0  0  0
   -1.5000    0.0000    0.0000 C   0  0  0  0  0  0  0  0  0  0  0  0
   -0.7500    1.2990    0.0000 C   0  0  0  0  0  0  0  0  0  0  0  0
   -1.5000    2.5981    0.0000 C   0  0  0  0  0  0  0  0  0  0  0  0
   -2.9918    2.7549    0.0000 C   0  0  0  0  0  0  0  0  0  0  0  0
   -3.3037    4.2221    0.0000 N   0  0  0  0  0  0  0  0  0  0  0  0
   -2.0046    4.9721    0.0000 N   0  0  0  0  0  0  0  0  0  0  0  0
   -0.8899    3.9684    0.0000 N   0  0  0  0  0  0  0  0  0  0  0  0
    0.5773    4.2803    0.0000 C   0  0  0  0  0  0  0  0  0  0  0  0
    1.0409    5.7068    0.0000 C   0  0  0  0  0  0  0  0  0  0  0  0
    2.5081    6.0187    0.0000 C   0  0  0  0  0  0  0  0  0  0  0  0
    2.9716    7.4453    0.0000 C   0  0  0  0  0  0  0  0  0  0  0  0
    1.9679    8.5600    0.0000 C   0  0  0  0  0  0  0  0  0  0  0  0
    0.5007    8.2481    0.0000 C   0  0  0  0  0  0  0  0  0  0  0  0
    0.0372    6.8216    0.0000 C   0  0  0  0  0  0  0  0  0  0  0  0
    0.7500    1.2990    0.0000 C   0  0  0  0  0  0  0  0  0  0  0  0
   12.7500   -6.4952    0.0000 N   0  0  0  0  0  0  0  0  0  0  0  0
   14.2500   -6.4952    0.0000 O   0  0  0  0  0  0  0  0  0  0  0  0
  1  2  2  0
  2  3  1  0
  3  4  1  0
  4  5  1  0
  5  6  1  0
  6  7  1  0
  7  8  1  0
  8  9  1  0
  9 10  2  0
  9 11  1  0
 11 12  1  0
 12 13  2  0
 13 14  1  0
 14 15  2  0
 15 16  1  0
 16 17  1  0
 17 18  2  0
 18 19  1  0
 19 20  2  0
 20 21  1  0
 21 22  1  0
 22 23  1  0
 23 24  2  0
 24 25  1  0
 25 26  2  0
 26 27  1  0
 27 28  2  0
 16 29  2  0
  2 30  1  0
 30 31  1  0
 29 12  1  0
 21 17  1  0
 28 23  1  0
M  END
>  <molecule_chembl_id>  (889) 
CHEMBL488747

>  <canonical_smiles>  (889) 
O=C(CCCCCCC(=O)Nc1cccc(-c2cnnn2Cc2ccccc2)c1)NO

>  <pchembl_value_mean>  (889) 
6.95

>  <document_chembl_id>  (889) 
CHEMBL1150413

$$$$

     RDKit          2D

 37 39  0  0  0  0  0  0  0  0999 V2000
    1.3299    5.6152    0.0000 C   0  0  0  0  0  0  0  0  0  0  0  0
   -0.0967    5.1517    0.0000 O   0  0  0  0  0  0  0  0  0  0  0  0
   -0.4086    3.6844    0.0000 C   0  0  0  0  0  0  0  0  0  0  0  0
    0.7062    2.6807    0.0000 C   0  0  0  0  0  0  0  0  0  0  0  0
    0.3943    1.2135    0.0000 C   0  0  0  0  0  0  0  0  0  0  0  0
    1.2760    0.0000    0.0000 C   0  0  0  0  0  0  0  0  0  0  0  0
    0.3943   -1.2135    0.0000 C   0  0  0  0  0  0  0  0  0  0  0  0
   -1.0323   -0.7500    0.0000 N   0  0  0  0  0  0  0  0  0  0  0  0
   -2.2458   -1.6317    0.0000 C   0  0  0  0  0  0  0  0  0  0  0  0
   -2.0890   -3.1235    0.0000 C   0  0  0  0  0  0  0  0  0  0  0  0
   -3.3025   -4.0051    0.0000 O   0  0  0  0  0  0  0  0  0  0  0  0
   -3.1458   -5.4969    0.0000 C   0  0  0  0  0  0  0  0  0  0  0  0
   -4.3593   -6.3786    0.0000 C   0  0  0  0  0  0  0  0  0  0  0  0
   -4.2025   -7.8704    0.0000 C   0  0  0  0  0  0  0  0  0  0  0  0
   -2.8322   -8.4805    0.0000 C   0  0  0  0  0  0  0  0  0  0  0  0
   -1.6186   -7.5988    0.0000 C   0  0  0  0  0  0  0  0  0  0  0  0
   -0.2483   -8.2089    0.0000 N   0  0  0  0  0  0  0  0  0  0  0  0
   -0.0915   -9.7007    0.0000 C   0  0  0  0  0  0  0  0  0  0  0  0
   -1.3051  -10.5824    0.0000 O   0  0  0  0  0  0  0  0  0  0  0  0
    1.2788  -10.3108    0.0000 C   0  0  0  0  0  0  0  0  0  0  0  0
    1.4356  -11.8026    0.0000 C   0  0  0  0  0  0  0  0  0  0  0  0
    2.8059  -12.4127    0.0000 C   0  0  0  0  0  0  0  0  0  0  0  0
    2.9627  -13.9045    0.0000 C   0  0  0  0  0  0  0  0  0  0  0  0
    4.3330  -14.5146    0.0000 C   0  0  0  0  0  0  0  0  0  0  0  0
    4.4898  -16.0064    0.0000 C   0  0  0  0  0  0  0  0  0  0  0  0
    5.8601  -16.6165    0.0000 C   0  0  0  0  0  0  0  0  0  0  0  0
    7.0736  -15.7348    0.0000 O   0  0  0  0  0  0  0  0  0  0  0  0
    6.0169  -18.1082    0.0000 N   0  0  0  0  0  0  0  0  0  0  0  0
    7.3872  -18.7184    0.0000 O   0  0  0  0  0  0  0  0  0  0  0  0
   -1.7754   -6.1070    0.0000 C   0  0  0  0  0  0  0  0  0  0  0  0
   -1.0323    0.7500    0.0000 C   0  0  0  0  0  0  0  0  0  0  0  0
   -2.1470    1.7537    0.0000 C   0  0  0  0  0  0  0  0  0  0  0  0
   -3.5736    1.2902    0.0000 O   0  0  0  0  0  0  0  0  0  0  0  0
   -4.6883    2.2939    0.0000 C   0  0  0  0  0  0  0  0  0  0  0  0
   -1.8351    3.2209    0.0000 C   0  0  0  0  0  0  0  0  0  0  0  0
   -2.9499    4.2246    0.0000 O   0  0  0  0  0  0  0  0  0  0  0  0
   -2.6380    5.6918    0.0000 C   0  0  0  0  0  0  0  0  0  0  0  0
  1  2  1  0
  2  3  1  0
  3  4  2  0
  4  5  1  0
  5  6  1  0
  6  7  2  0
  7  8  1  0
  8  9  1  0
  9 10  1  0
 10 11  1  0
 11 12  1  0
 12 13  2  0
 13 14  1  0
 14 15  2  0
 15 16  1  0
 16 17  1  0
 17 18  1  0
 18 19  2  0
 18 20  1  0
 20 21  1  0
 21 22  1  0
 22 23  1  0
 23 24  1  0
 24 25  1  0
 25 26  1  0
 26 27  2  0
 26 28  1  0
 28 29  1  0
 16 30  2  0
  8 31  1  0
 31 32  1  0
 32 33  1  0
 33 34  1  0
 32 35  2  0
 35 36  1  0
 36 37  1  0
 35  3  1  0
 31  5  2  0
 30 12  1  0
M  END
>  <molecule_chembl_id>  (890) 
CHEMBL4162183

>  <canonical_smiles>  (890) 
COc1cc2ccn(CCOc3cccc(NC(=O)CCCCCCC(=O)NO)c3)c2c(OC)c1OC

>  <pchembl_value_mean>  (890) 
6.95

>  <document_chembl_id>  (890) 
CHEMBL4138235

$$$$

     RDKit          2D

 36 40  0  0  0  0  0  0  0  0999 V2000
   -0.8980   -7.8928    0.0000 C   0  0  0  0  0  0  0  0  0  0  0  0
    0.5692   -8.2047    0.0000 C   0  0  0  0  0  0  0  0  0  0  0  0
    1.1793   -9.5750    0.0000 N   0  0  0  0  0  0  0  0  0  0  0  0
    2.6711   -9.4182    0.0000 O   0  0  0  0  0  0  0  0  0  0  0  0
    2.9829   -7.9510    0.0000 C   0  0  0  0  0  0  0  0  0  0  0  0
    4.3533   -7.3409    0.0000 C   0  0  0  0  0  0  0  0  0  0  0  0
    1.6839   -7.2010    0.0000 C   0  0  0  0  0  0  0  0  0  0  0  0
    1.5271   -5.7092    0.0000 C   0  0  0  0  0  0  0  0  0  0  0  0
    0.1568   -5.0991    0.0000 N   0  0  0  0  0  0  0  0  0  0  0  0
   -0.0000   -3.6073    0.0000 C   0  0  0  0  0  0  0  0  0  0  0  0
   -1.2135   -2.7256    0.0000 S   0  0  0  0  0  0  0  0  0  0  0  0
   -0.7500   -1.2990    0.0000 C   0  0  0  0  0  0  0  0  0  0  0  0
    0.7500   -1.2990    0.0000 C   0  0  0  0  0  0  0  0  0  0  0  0
    1.2135   -2.7256    0.0000 C   0  0  0  0  0  0  0  0  0  0  0  0
    2.5838   -3.3357    0.0000 C   0  0  0  0  0  0  0  0  0  0  0  0
    3.7974   -2.4540    0.0000 O   0  0  0  0  0  0  0  0  0  0  0  0
    2.7406   -4.8275    0.0000 N   0  0  0  0  0  0  0  0  0  0  0  0
    1.5000    0.0000    0.0000 C   0  0  0  0  0  0  0  0  0  0  0  0
    0.7500    1.2990    0.0000 C   0  0  0  0  0  0  0  0  0  0  0  0
   -0.7500    1.2990    0.0000 N   0  0  0  0  0  0  0  0  0  0  0  0
   -1.5000    2.5981    0.0000 C   0  0  0  0  0  0  0  0  0  0  0  0
   -0.7500    3.8971    0.0000 C   0  0  0  0  0  0  0  0  0  0  0  0
   -1.5000    5.1962    0.0000 C   0  0  0  0  0  0  0  0  0  0  0  0
   -0.7500    6.4952    0.0000 C   0  0  0  0  0  0  0  0  0  0  0  0
   -1.5000    7.7942    0.0000 C   0  0  0  0  0  0  0  0  0  0  0  0
   -0.7500    9.0933    0.0000 C   0  0  0  0  0  0  0  0  0  0  0  0
    0.7500    9.0933    0.0000 O   0  0  0  0  0  0  0  0  0  0  0  0
   -1.5000   10.3923    0.0000 N   0  0  0  0  0  0  0  0  0  0  0  0
   -0.7500   11.6913    0.0000 C   0  0  0  0  0  0  0  0  0  0  0  0
    0.7500   11.6913    0.0000 C   0  0  0  0  0  0  0  0  0  0  0  0
    1.5000   12.9904    0.0000 C   0  0  0  0  0  0  0  0  0  0  0  0
    0.7500   14.2894    0.0000 C   0  0  0  0  0  0  0  0  0  0  0  0
   -0.7500   14.2894    0.0000 C   0  0  0  0  0  0  0  0  0  0  0  0
   -1.5000   12.9904    0.0000 C   0  0  0  0  0  0  0  0  0  0  0  0
   -3.0000   12.9904    0.0000 N   0  0  0  0  0  0  0  0  0  0  0  0
   -1.5000    0.0000    0.0000 C   0  0  0  0  0  0  0  0  0  0  0  0
  1  2  1  0
  2  3  2  0
  3  4  1  0
  4  5  1  0
  5  6  1  0
  5  7  2  0
  7  8  1  0
  8  9  2  0
  9 10  1  0
 10 11  1  0
 11 12  1  0
 12 13  2  0
 13 14  1  0
 14 15  1  0
 15 16  2  0
 15 17  1  0
 13 18  1  0
 18 19  1  0
 19 20  1  0
 20 21  1  0
 21 22  1  0
 22 23  1  0
 23 24  1  0
 24 25  1  0
 25 26  1  0
 26 27  2  0
 26 28  1  0
 28 29  1  0
 29 30  2  0
 30 31  1  0
 31 32  2  0
 32 33  1  0
 33 34  2  0
 34 35  1  0
 20 36  1  0
  7  2  1  0
 17  8  1  0
 34 29  1  0
 14 10  2  0
 36 12  1  0
M  END
>  <molecule_chembl_id>  (891) 
CHEMBL4438753

>  <canonical_smiles>  (891) 
Cc1noc(C)c1-c1nc2sc3c(c2c(=O)[nH]1)CCN(CCCCCC(=O)Nc1ccccc1N)C3

>  <pchembl_value_mean>  (891) 
6.95

>  <document_chembl_id>  (891) 
CHEMBL4342471

$$$$

     RDKit          2D

 27 28  0  0  0  0  0  0  0  0999 V2000
   11.9959  -12.3581    0.0000 O   0  0  0  0  0  0  0  0  0  0  0  0
   10.7824  -13.2397    0.0000 C   0  0  0  0  0  0  0  0  0  0  0  0
    9.4121  -12.6296    0.0000 C   0  0  0  0  0  0  0  0  0  0  0  0
    9.2553  -11.1379    0.0000 C   0  0  0  0  0  0  0  0  0  0  0  0
    7.8850  -10.5278    0.0000 C   0  0  0  0  0  0  0  0  0  0  0  0
    7.7282   -9.0360    0.0000 C   0  0  0  0  0  0  0  0  0  0  0  0
    6.3579   -8.4259    0.0000 C   0  0  0  0  0  0  0  0  0  0  0  0
    6.2011   -6.9341    0.0000 C   0  0  0  0  0  0  0  0  0  0  0  0
    4.8308   -6.3240    0.0000 C   0  0  0  0  0  0  0  0  0  0  0  0
    3.6172   -7.2057    0.0000 O   0  0  0  0  0  0  0  0  0  0  0  0
    4.6740   -4.8322    0.0000 N   0  0  0  0  0  0  0  0  0  0  0  0
    3.3037   -4.2221    0.0000 C   0  0  0  0  0  0  0  0  0  0  0  0
    2.9918   -2.7549    0.0000 N   0  0  0  0  0  0  0  0  0  0  0  0
    1.5000   -2.5981    0.0000 C   0  0  0  0  0  0  0  0  0  0  0  0
    0.7500   -1.2990    0.0000 C   0  0  0  0  0  0  0  0  0  0  0  0
    1.5000    0.0000    0.0000 C   0  0  0  0  0  0  0  0  0  0  0  0
    0.7500    1.2990    0.0000 C   0  0  0  0  0  0  0  0  0  0  0  0
   -0.7500    1.2990    0.0000 C   0  0  0  0  0  0  0  0  0  0  0  0
   -1.5000    0.0000    0.0000 C   0  0  0  0  0  0  0  0  0  0  0  0
   -3.0000    0.0000    0.0000 N   0  0  0  0  0  4  0  0  0  0  0  0
   -3.7500   -1.2990    0.0000 O   0  0  0  0  0  0  0  0  0  0  0  0
   -3.7500    1.2990    0.0000 O   0  0  0  0  0  1  0  0  0  0  0  0
   -0.7500   -1.2990    0.0000 C   0  0  0  0  0  0  0  0  0  0  0  0
    0.8899   -3.9684    0.0000 C   0  0  0  0  0  0  0  0  0  0  0  0
    2.0046   -4.9721    0.0000 S   0  0  0  0  0  0  0  0  0  0  0  0
   10.9392  -14.7315    0.0000 N   0  0  0  0  0  0  0  0  0  0  0  0
   12.3095  -15.3416    0.0000 O   0  0  0  0  0  0  0  0  0  0  0  0
  1  2  2  0
  2  3  1  0
  3  4  1  0
  4  5  1  0
  5  6  1  0
  6  7  1  0
  7  8  1  0
  8  9  1  0
  9 10  2  0
  9 11  1  0
 11 12  1  0
 12 13  2  0
 13 14  1  0
 14 15  1  0
 15 16  2  0
 16 17  1  0
 17 18  2  0
 18 19  1  0
 19 20  1  0
 20 21  2  0
 20 22  1  0
 19 23  2  0
 14 24  2  0
 24 25  1  0
  2 26  1  0
 26 27  1  0
 25 12  1  0
 23 15  1  0
M  CHG  2  20   1  22  -1
M  END
>  <molecule_chembl_id>  (892) 
CHEMBL387924

>  <canonical_smiles>  (892) 
O=C(CCCCCCC(=O)Nc1nc(-c2cccc([N+](=O)[O-])c2)cs1)NO

>  <pchembl_value_mean>  (892) 
6.95

>  <document_chembl_id>  (892) 
CHEMBL1145385

$$$$

     RDKit          2D

 32 36  0  0  0  0  0  0  0  0999 V2000
    2.6353   12.3143    0.0000 N   0  0  0  0  0  0  0  0  0  0  0  0
    4.1025   12.6262    0.0000 C   0  0  0  0  0  0  0  0  0  0  0  0
    4.5660   14.0528    0.0000 C   0  0  0  0  0  0  0  0  0  0  0  0
    6.0332   14.3647    0.0000 C   0  0  0  0  0  0  0  0  0  0  0  0
    7.0369   13.2499    0.0000 C   0  0  0  0  0  0  0  0  0  0  0  0
    8.5042   13.5618    0.0000 C   0  0  0  0  0  0  0  0  0  0  0  0
    9.5079   12.4471    0.0000 C   0  0  0  0  0  0  0  0  0  0  0  0
   10.9751   12.7590    0.0000 C   0  0  0  0  0  0  0  0  0  0  0  0
   11.4386   14.1855    0.0000 C   0  0  0  0  0  0  0  0  0  0  0  0
   10.4349   15.3003    0.0000 C   0  0  0  0  0  0  0  0  0  0  0  0
    8.9677   14.9884    0.0000 C   0  0  0  0  0  0  0  0  0  0  0  0
    6.5734   11.8234    0.0000 C   0  0  0  0  0  0  0  0  0  0  0  0
    5.1062   11.5115    0.0000 C   0  0  0  0  0  0  0  0  0  0  0  0
    4.6427   10.0849    0.0000 N   0  0  0  0  0  0  0  0  0  0  0  0
    3.1755    9.7730    0.0000 C   0  0  0  0  0  0  0  0  0  0  0  0
    2.1718   10.8878    0.0000 O   0  0  0  0  0  0  0  0  0  0  0  0
    2.7119    8.3464    0.0000 C   0  0  0  0  0  0  0  0  0  0  0  0
    1.2447    8.0346    0.0000 C   0  0  0  0  0  0  0  0  0  0  0  0
    0.7812    6.6080    0.0000 C   0  0  0  0  0  0  0  0  0  0  0  0
    1.7849    5.4933    0.0000 C   0  0  0  0  0  0  0  0  0  0  0  0
    1.3213    4.0667    0.0000 N   0  0  0  0  0  0  0  0  0  0  0  0
   -0.1459    3.7548    0.0000 C   0  0  0  0  0  0  0  0  0  0  0  0
   -0.6094    2.3282    0.0000 C   0  0  0  0  0  0  0  0  0  0  0  0
    0.3943    1.2135    0.0000 C   0  0  0  0  0  0  0  0  0  0  0  0
    1.2760    0.0000    0.0000 C   0  0  0  0  0  0  0  0  0  0  0  0
    0.3943   -1.2135    0.0000 C   0  0  0  0  0  0  0  0  0  0  0  0
   -1.0323   -0.7500    0.0000 N   0  0  0  0  0  0  0  0  0  0  0  0
   -1.0323    0.7500    0.0000 C   0  0  0  0  0  0  0  0  0  0  0  0
    1.8615    1.5254    0.0000 C   0  0  0  0  0  0  0  0  0  0  0  0
    2.3250    2.9520    0.0000 C   0  0  0  0  0  0  0  0  0  0  0  0
    3.2521    5.8051    0.0000 N   0  0  0  0  0  0  0  0  0  0  0  0
    3.7156    7.2317    0.0000 C   0  0  0  0  0  0  0  0  0  0  0  0
  1  2  1  0
  2  3  2  0
  3  4  1  0
  4  5  2  0
  5  6  1  0
  6  7  2  0
  7  8  1  0
  8  9  2  0
  9 10  1  0
 10 11  2  0
  5 12  1  0
 12 13  2  0
 13 14  1  0
 14 15  1  0
 15 16  2  0
 15 17  1  0
 17 18  2  0
 18 19  1  0
 19 20  2  0
 20 21  1  0
 21 22  1  0
 22 23  1  0
 23 24  1  0
 24 25  1  0
 25 26  1  0
 26 27  1  0
 27 28  1  0
 24 29  1  0
 29 30  1  0
 20 31  1  0
 31 32  2  0
 13  2  1  0
 32 17  1  0
 11  6  1  0
 30 21  1  0
 28 24  1  0
M  END
>  <molecule_chembl_id>  (893) 
CHEMBL471824

>  <canonical_smiles>  (893) 
Nc1ccc(-c2ccccc2)cc1NC(=O)c1ccc(N2CCC3(CCNC3)CC2)nc1

>  <pchembl_value_mean>  (893) 
6.96

>  <document_chembl_id>  (893) 
CHEMBL1152282

$$$$

     RDKit          2D

 28 30  0  0  0  0  0  0  0  0999 V2000
    7.5000   -5.1962    0.0000 O   0  0  0  0  0  0  0  0  0  0  0  0
    8.2500   -3.8971    0.0000 C   0  0  0  0  0  0  0  0  0  0  0  0
    7.5000   -2.5981    0.0000 C   0  0  0  0  0  0  0  0  0  0  0  0
    6.0000   -2.5981    0.0000 C   0  0  0  0  0  0  0  0  0  0  0  0
    5.2500   -1.2990    0.0000 C   0  0  0  0  0  0  0  0  0  0  0  0
    3.7500   -1.2990    0.0000 C   0  0  0  0  0  0  0  0  0  0  0  0
    3.0000    0.0000    0.0000 S   0  0  0  0  0  0  0  0  0  0  0  0
    1.5000    0.0000    0.0000 C   0  0  0  0  0  0  0  0  0  0  0  0
    0.7500   -1.2990    0.0000 N   0  0  0  0  0  0  0  0  0  0  0  0
   -0.7500   -1.2990    0.0000 C   0  0  0  0  0  0  0  0  0  0  0  0
   -1.5000   -2.5981    0.0000 C   0  0  0  0  0  0  0  0  0  0  0  0
   -3.0000   -2.5981    0.0000 C   0  0  0  0  0  0  0  0  0  0  0  0
   -3.7500   -3.8971    0.0000 C   0  0  0  0  0  0  0  0  0  0  0  0
   -3.0000   -5.1962    0.0000 C   0  0  0  0  0  0  0  0  0  0  0  0
   -3.7500   -6.4952    0.0000 C   0  0  0  0  0  0  0  0  0  0  0  0
   -5.2500   -6.4952    0.0000 C   0  0  0  0  0  0  0  0  0  0  0  0
   -6.0000   -7.7942    0.0000 C   0  0  0  0  0  0  0  0  0  0  0  0
   -5.2500   -9.0933    0.0000 C   0  0  0  0  0  0  0  0  0  0  0  0
   -3.7500   -9.0933    0.0000 C   0  0  0  0  0  0  0  0  0  0  0  0
   -3.0000   -7.7942    0.0000 C   0  0  0  0  0  0  0  0  0  0  0  0
   -1.5000   -5.1962    0.0000 C   0  0  0  0  0  0  0  0  0  0  0  0
   -0.7500   -3.8971    0.0000 C   0  0  0  0  0  0  0  0  0  0  0  0
   -1.5000    0.0000    0.0000 C   0  0  0  0  0  0  0  0  0  0  0  0
   -0.7500    1.2990    0.0000 C   0  0  0  0  0  0  0  0  0  0  0  0
   -1.5000    2.5981    0.0000 O   0  0  0  0  0  0  0  0  0  0  0  0
    0.7500    1.2990    0.0000 N   0  0  0  0  0  0  0  0  0  0  0  0
    9.7500   -3.8971    0.0000 N   0  0  0  0  0  0  0  0  0  0  0  0
   10.5000   -5.1962    0.0000 O   0  0  0  0  0  0  0  0  0  0  0  0
  1  2  2  0
  2  3  1  0
  3  4  1  0
  4  5  1  0
  5  6  1  0
  6  7  1  0
  7  8  1  0
  8  9  2  0
  9 10  1  0
 10 11  1  0
 11 12  2  0
 12 13  1  0
 13 14  2  0
 14 15  1  0
 15 16  2  0
 16 17  1  0
 17 18  2  0
 18 19  1  0
 19 20  2  0
 14 21  1  0
 21 22  2  0
 10 23  2  0
 23 24  1  0
 24 25  2  0
 24 26  1  0
  2 27  1  0
 27 28  1  0
 26  8  1  0
 22 11  1  0
 20 15  1  0
M  END
>  <molecule_chembl_id>  (894) 
CHEMBL3426803

>  <canonical_smiles>  (894) 
O=C(CCCCSc1nc(-c2ccc(-c3ccccc3)cc2)cc(=O)[nH]1)NO

>  <pchembl_value_mean>  (894) 
6.96

>  <document_chembl_id>  (894) 
CHEMBL3425488

$$$$

     RDKit          2D

 39 43  0  0  0  0  0  0  0  0999 V2000
   10.7824  -15.8378    0.0000 C   0  0  0  0  0  0  0  0  0  0  0  0
    9.4121  -15.2277    0.0000 C   0  0  0  0  0  0  0  0  0  0  0  0
    9.2553  -13.7359    0.0000 C   0  0  0  0  0  0  0  0  0  0  0  0
   10.4688  -12.8543    0.0000 O   0  0  0  0  0  0  0  0  0  0  0  0
    7.8850  -13.1258    0.0000 C   0  0  0  0  0  0  0  0  0  0  0  0
    7.7282  -11.6340    0.0000 C   0  0  0  0  0  0  0  0  0  0  0  0
    6.3579  -11.0239    0.0000 C   0  0  0  0  0  0  0  0  0  0  0  0
    6.2011   -9.5322    0.0000 C   0  0  0  0  0  0  0  0  0  0  0  0
    4.8308   -8.9221    0.0000 C   0  0  0  0  0  0  0  0  0  0  0  0
    4.6740   -7.4303    0.0000 C   0  0  0  0  0  0  0  0  0  0  0  0
    5.8875   -6.5486    0.0000 N   0  0  0  0  0  0  0  0  0  0  0  0
    7.2578   -7.1587    0.0000 C   0  0  0  0  0  0  0  0  0  0  0  0
    7.4146   -8.6505    0.0000 O   0  0  0  0  0  0  0  0  0  0  0  0
    8.4713   -6.2770    0.0000 C   0  0  0  0  0  0  0  0  0  0  0  0
    9.0814   -4.9067    0.0000 C   0  0  0  0  0  0  0  0  0  0  0  0
    9.9631   -6.1202    0.0000 C   0  0  0  0  0  0  0  0  0  0  0  0
   10.1199   -7.6120    0.0000 C   0  0  0  0  0  0  0  0  0  0  0  0
   11.4902   -8.2221    0.0000 C   0  0  0  0  0  0  0  0  0  0  0  0
   12.7038   -7.3404    0.0000 N   0  0  0  0  0  0  0  0  0  0  0  0
   14.0741   -7.9505    0.0000 C   0  0  0  0  0  0  0  0  0  0  0  0
   12.5470   -5.8487    0.0000 C   0  0  0  0  0  0  0  0  0  0  0  0
   11.1766   -5.2386    0.0000 C   0  0  0  0  0  0  0  0  0  0  0  0
    3.3037   -6.8202    0.0000 C   0  0  0  0  0  0  0  0  0  0  0  0
    2.0046   -7.5702    0.0000 N   0  0  0  0  0  0  0  0  0  0  0  0
    0.8899   -6.5665    0.0000 N   0  0  0  0  0  0  0  0  0  0  0  0
    1.5000   -5.1962    0.0000 C   0  0  0  0  0  0  0  0  0  0  0  0
    0.7500   -3.8971    0.0000 C   0  0  0  0  0  0  0  0  0  0  0  0
    1.5000   -2.5981    0.0000 C   0  0  0  0  0  0  0  0  0  0  0  0
    0.7500   -1.2990    0.0000 C   0  0  0  0  0  0  0  0  0  0  0  0
    1.5000    0.0000    0.0000 C   0  0  0  0  0  0  0  0  0  0  0  0
    0.7500    1.2990    0.0000 C   0  0  0  0  0  0  0  0  0  0  0  0
   -0.7500    1.2990    0.0000 C   0  0  0  0  0  0  0  0  0  0  0  0
   -1.5000    0.0000    0.0000 C   0  0  0  0  0  0  0  0  0  0  0  0
   -0.7500   -1.2990    0.0000 C   0  0  0  0  0  0  0  0  0  0  0  0
   -1.5000   -2.5981    0.0000 N   0  0  0  0  0  0  0  0  0  0  0  0
   -0.7500   -3.8971    0.0000 C   0  0  0  0  0  0  0  0  0  0  0  0
   -1.5000   -5.1962    0.0000 O   0  0  0  0  0  0  0  0  0  0  0  0
   -3.0000   -5.1962    0.0000 C   0  0  0  0  0  0  0  0  0  0  0  0
    2.9918   -5.3529    0.0000 N   0  0  0  0  0  0  0  0  0  0  0  0
  1  2  1  0
  2  3  1  0
  3  4  2  0
  3  5  1  0
  5  6  1  0
  6  7  1  0
  7  8  1  0
  8  9  1  0
  9 10  1  0
 10 11  1  0
 11 12  1  0
 12 13  2  0
 12 14  1  0
 14 15  1  0
 15 16  1  0
 16 17  1  0
 17 18  1  0
 18 19  1  0
 19 20  1  0
 19 21  1  0
 21 22  1  0
 10 23  1  0
 23 24  2  0
 24 25  1  0
 25 26  2  0
 26 27  1  0
 27 28  2  0
 28 29  1  0
 29 30  2  0
 30 31  1  0
 31 32  2  0
 32 33  1  0
 33 34  2  0
 34 35  1  0
 35 36  2  0
 36 37  1  0
 37 38  1  0
 26 39  1  0
 16 14  1  0
 39 23  1  0
 22 16  1  0
 36 27  1  0
 34 29  1  0
M  END
>  <molecule_chembl_id>  (895) 
CHEMBL4641299

>  <canonical_smiles>  (895) 
CCC(=O)CCCCCC(NC(=O)C1CC12CCN(C)CC2)c1nnc(-c2cc3ccccc3nc2OC)[nH]1

>  <pchembl_value_mean>  (895) 
6.96

>  <document_chembl_id>  (895) 
CHEMBL4622849

$$$$

     RDKit          2D

 36 39  0  0  0  0  0  0  0  0999 V2000
    3.7500   -1.2990    0.0000 C   0  0  0  0  0  0  0  0  0  0  0  0
    3.0000    0.0000    0.0000 O   0  0  0  0  0  0  0  0  0  0  0  0
    1.5000    0.0000    0.0000 C   0  0  0  0  0  0  0  0  0  0  0  0
    0.7500   -1.2990    0.0000 C   0  0  0  0  0  0  0  0  0  0  0  0
   -0.7500   -1.2990    0.0000 C   0  0  0  0  0  0  0  0  0  0  0  0
   -1.5000    0.0000    0.0000 C   0  0  0  0  0  0  0  0  0  0  0  0
   -2.9672    0.3119    0.0000 N   0  0  0  0  0  0  0  0  0  0  0  0
   -3.1240    1.8037    0.0000 C   0  0  0  0  0  0  0  0  0  0  0  0
   -4.4231    2.5537    0.0000 C   0  0  0  0  0  0  0  0  0  0  0  0
   -1.7537    2.4138    0.0000 C   0  0  0  0  0  0  0  0  0  0  0  0
   -1.4418    3.8810    0.0000 C   0  0  0  0  0  0  0  0  0  0  0  0
   -2.5565    4.8847    0.0000 C   0  0  0  0  0  0  0  0  0  0  0  0
   -3.9831    4.4211    0.0000 O   0  0  0  0  0  0  0  0  0  0  0  0
   -2.2447    6.3519    0.0000 N   0  0  0  0  0  0  0  0  0  0  0  0
   -3.3594    7.3556    0.0000 C   0  0  0  0  0  0  0  0  0  0  0  0
   -3.0475    8.8228    0.0000 C   0  0  0  0  0  0  0  0  0  0  0  0
   -4.1622    9.8265    0.0000 C   0  0  0  0  0  0  0  0  0  0  0  0
   -3.8504   11.2937    0.0000 C   0  0  0  0  0  0  0  0  0  0  0  0
   -4.9651   12.2974    0.0000 C   0  0  0  0  0  0  0  0  0  0  0  0
   -4.6532   13.7646    0.0000 C   0  0  0  0  0  0  0  0  0  0  0  0
   -5.7679   14.7683    0.0000 C   0  0  0  0  0  0  0  0  0  0  0  0
   -5.4561   16.2356    0.0000 C   0  0  0  0  0  0  0  0  0  0  0  0
   -7.1945   14.3048    0.0000 O   0  0  0  0  0  0  0  0  0  0  0  0
   -4.7860    6.8921    0.0000 C   0  0  0  0  0  0  0  0  0  0  0  0
   -5.2495    5.4655    0.0000 N   0  0  0  0  0  0  0  0  0  0  0  0
   -6.7495    5.4655    0.0000 C   0  0  0  0  0  0  0  0  0  0  0  0
   -7.2130    6.8921    0.0000 C   0  0  0  0  0  0  0  0  0  0  0  0
   -8.6396    7.3556    0.0000 C   0  0  0  0  0  0  0  0  0  0  0  0
   -8.9515    8.8228    0.0000 C   0  0  0  0  0  0  0  0  0  0  0  0
  -10.3781    9.2863    0.0000 C   0  0  0  0  0  0  0  0  0  0  0  0
  -11.4928    8.2826    0.0000 C   0  0  0  0  0  0  0  0  0  0  0  0
  -11.1809    6.8154    0.0000 C   0  0  0  0  0  0  0  0  0  0  0  0
   -9.7543    6.3519    0.0000 C   0  0  0  0  0  0  0  0  0  0  0  0
   -5.9995    7.7737    0.0000 N   0  0  0  0  0  0  0  0  0  0  0  0
   -0.7500    1.2990    0.0000 C   0  0  0  0  0  0  0  0  0  0  0  0
    0.7500    1.2990    0.0000 C   0  0  0  0  0  0  0  0  0  0  0  0
  1  2  1  0
  2  3  1  0
  3  4  2  0
  4  5  1  0
  5  6  2  0
  6  7  1  0
  7  8  1  0
  8  9  1  0
  8 10  2  0
 10 11  1  0
 11 12  1  0
 12 13  2  0
 12 14  1  0
 14 15  1  0
 15 16  1  0
 16 17  1  0
 17 18  1  0
 18 19  1  0
 19 20  1  0
 20 21  1  0
 21 22  1  0
 21 23  2  0
 15 24  1  0
 24 25  2  0
 25 26  1  0
 26 27  2  0
 27 28  1  0
 28 29  2  0
 29 30  1  0
 30 31  2  0
 31 32  1  0
 32 33  2  0
 27 34  1  0
 10 35  1  0
 35 36  2  0
 36  3  1  0
 35  6  1  0
 34 24  1  0
 33 28  1  0
M  END
>  <molecule_chembl_id>  (896) 
CHEMBL407959

>  <canonical_smiles>  (896) 
COc1ccc2[nH]c(C)c(CC(=O)NC(CCCCCC(C)=O)c3ncc(-c4ccccc4)[nH]3)c2c1

>  <pchembl_value_mean>  (896) 
6.96

>  <document_chembl_id>  (896) 
CHEMBL1144784

$$$$

     RDKit          2D

 21 23  0  0  0  0  0  0  0  0999 V2000
    3.0000    0.0000    0.0000 C   0  0  0  0  0  0  0  0  0  0  0  0
    1.5000    0.0000    0.0000 C   0  0  0  0  0  0  0  0  0  0  0  0
    0.7500   -1.2990    0.0000 C   0  0  0  0  0  0  0  0  0  0  0  0
   -0.7500   -1.2990    0.0000 C   0  0  0  0  0  0  0  0  0  0  0  0
   -1.5000    0.0000    0.0000 C   0  0  0  0  0  0  0  0  0  0  0  0
   -3.0000    0.0000    0.0000 C   0  0  0  0  0  0  0  0  0  0  0  0
   -3.2605   -1.4772    0.0000 N   0  0  0  0  0  0  0  0  0  0  0  0
   -4.6700   -1.9902    0.0000 C   0  0  0  0  0  0  0  0  0  0  0  0
   -5.8191   -1.0261    0.0000 N   0  0  0  0  0  0  0  0  0  0  0  0
   -7.2286   -1.5391    0.0000 C   0  0  0  0  0  0  0  0  0  0  0  0
   -7.4891   -3.0163    0.0000 C   0  0  0  0  0  0  0  0  0  0  0  0
   -8.8986   -3.5293    0.0000 C   0  0  0  0  0  0  0  0  0  0  0  0
   -9.1591   -5.0065    0.0000 O   0  0  0  0  0  0  0  0  0  0  0  0
  -10.0477   -2.5652    0.0000 N   0  0  0  0  0  0  0  0  0  0  0  0
  -11.4572   -3.0782    0.0000 O   0  0  0  0  0  0  0  0  0  0  0  0
   -6.3400   -3.9805    0.0000 C   0  0  0  0  0  0  0  0  0  0  0  0
   -4.9305   -3.4675    0.0000 N   0  0  0  0  0  0  0  0  0  0  0  0
   -4.4095    0.5130    0.0000 C   0  0  0  0  0  0  0  0  0  0  0  0
   -3.2605    1.4772    0.0000 C   0  0  0  0  0  0  0  0  0  0  0  0
   -0.7500    1.2990    0.0000 C   0  0  0  0  0  0  0  0  0  0  0  0
    0.7500    1.2990    0.0000 C   0  0  0  0  0  0  0  0  0  0  0  0
  1  2  1  0
  2  3  2  0
  3  4  1  0
  4  5  2  0
  5  6  1  0
  6  7  1  0
  7  8  1  0
  8  9  2  0
  9 10  1  0
 10 11  2  0
 11 12  1  0
 12 13  2  0
 12 14  1  0
 14 15  1  0
 11 16  1  0
 16 17  2  0
  6 18  1  0
 18 19  1  0
  5 20  1  0
 20 21  2  0
 21  2  1  0
 19  6  1  0
 17  8  1  0
M  END
>  <molecule_chembl_id>  (897) 
CHEMBL3655970

>  <canonical_smiles>  (897) 
Cc1ccc(C2(Nc3ncc(C(=O)NO)cn3)CC2)cc1

>  <pchembl_value_mean>  (897) 
6.97

>  <document_chembl_id>  (897) 
CHEMBL3639071

$$$$

     RDKit          2D

 25 27  0  0  0  0  0  0  0  0999 V2000
   -7.5000   -5.1962    0.0000 O   0  0  0  0  0  0  0  0  0  0  0  0
   -6.0000   -5.1962    0.0000 C   0  0  0  0  0  0  0  0  0  0  0  0
   -5.2500   -6.4952    0.0000 N   0  0  0  0  0  0  0  0  0  0  0  0
   -6.0000   -7.7942    0.0000 O   0  0  0  0  0  0  0  0  0  0  0  0
   -5.2500   -3.8971    0.0000 C   0  0  0  0  0  0  0  0  0  0  0  0
   -3.7500   -3.8971    0.0000 C   0  0  0  0  0  0  0  0  0  0  0  0
   -3.0000   -2.5981    0.0000 N   0  0  0  0  0  0  0  0  0  0  0  0
   -3.7500   -1.2990    0.0000 C   0  0  0  0  0  0  0  0  0  0  0  0
   -3.0000    0.0000    0.0000 N   0  0  0  0  0  0  0  0  0  0  0  0
   -3.7500    1.2990    0.0000 C   0  0  0  0  0  0  0  0  0  0  0  0
   -2.3405    1.8121    0.0000 C   0  0  0  0  0  0  0  0  0  0  0  0
   -2.0800    3.2893    0.0000 C   0  0  0  0  0  0  0  0  0  0  0  0
   -0.6704    3.8023    0.0000 C   0  0  0  0  0  0  0  0  0  0  0  0
   -0.4100    5.2795    0.0000 F   0  0  0  0  0  0  0  0  0  0  0  0
    0.4786    2.8381    0.0000 C   0  0  0  0  0  0  0  0  0  0  0  0
    0.2181    1.3609    0.0000 C   0  0  0  0  0  0  0  0  0  0  0  0
   -1.1914    0.8479    0.0000 C   0  0  0  0  0  0  0  0  0  0  0  0
   -1.4519   -0.6293    0.0000 F   0  0  0  0  0  0  0  0  0  0  0  0
   -4.8991    0.3349    0.0000 C   0  0  0  0  0  0  0  0  0  0  0  0
   -6.3086    0.8479    0.0000 C   0  0  0  0  0  0  0  0  0  0  0  0
   -6.5691    2.3251    0.0000 O   0  0  0  0  0  0  0  0  0  0  0  0
   -5.4200    3.2893    0.0000 C   0  0  0  0  0  0  0  0  0  0  0  0
   -4.0105    2.7762    0.0000 C   0  0  0  0  0  0  0  0  0  0  0  0
   -5.2500   -1.2990    0.0000 N   0  0  0  0  0  0  0  0  0  0  0  0
   -6.0000   -2.5981    0.0000 C   0  0  0  0  0  0  0  0  0  0  0  0
  1  2  2  0
  2  3  1  0
  3  4  1  0
  2  5  1  0
  5  6  2  0
  6  7  1  0
  7  8  2  0
  8  9  1  0
  9 10  1  0
 10 11  1  0
 11 12  2  0
 12 13  1  0
 13 14  1  0
 13 15  2  0
 15 16  1  0
 16 17  2  0
 17 18  1  0
 10 19  1  0
 19 20  1  0
 20 21  1  0
 21 22  1  0
 22 23  1  0
  8 24  1  0
 24 25  2  0
 25  5  1  0
 23 10  1  0
 17 11  1  0
M  END
>  <molecule_chembl_id>  (898) 
CHEMBL3920532

>  <canonical_smiles>  (898) 
O=C(NO)c1cnc(NC2(c3cc(F)ccc3F)CCOCC2)nc1

>  <pchembl_value_mean>  (898) 
6.97

>  <document_chembl_id>  (898) 
CHEMBL3886954

$$$$

     RDKit          2D

 25 25  0  0  0  0  0  0  0  0999 V2000
    3.7500   -1.2990    0.0000 C   0  0  0  0  0  0  0  0  0  0  0  0
    3.0000    0.0000    0.0000 O   0  0  0  0  0  0  0  0  0  0  0  0
    1.5000    0.0000    0.0000 C   0  0  0  0  0  0  0  0  0  0  0  0
    0.7500   -1.2990    0.0000 C   0  0  0  0  0  0  0  0  0  0  0  0
   -0.7500   -1.2990    0.0000 C   0  0  0  0  0  0  0  0  0  0  0  0
   -1.5000   -2.5981    0.0000 O   0  0  0  0  0  0  0  0  0  0  0  0
   -1.5000    0.0000    0.0000 C   0  0  0  0  0  0  0  0  0  0  0  0
   -0.7500    1.2990    0.0000 C   0  0  0  0  0  0  0  0  0  0  0  0
   -1.5000    2.5981    0.0000 O   0  0  0  0  0  0  0  0  0  0  0  0
   -3.0000    2.5981    0.0000 C   0  0  0  0  0  0  0  0  0  0  0  0
    0.7500    1.2990    0.0000 C   0  0  0  0  0  0  0  0  0  0  0  0
    1.5000    2.5981    0.0000 C   0  0  0  0  0  0  0  0  0  0  0  0
    3.0000    2.5981    0.0000 N   0  0  0  0  0  0  0  0  0  0  0  0
    3.7500    3.8971    0.0000 N   0  0  0  0  0  0  0  0  0  0  0  0
    5.2500    3.8971    0.0000 C   0  0  0  0  0  0  0  0  0  0  0  0
    6.0000    2.5981    0.0000 O   0  0  0  0  0  0  0  0  0  0  0  0
    6.0000    5.1962    0.0000 C   0  0  0  0  0  0  0  0  0  0  0  0
    7.5000    5.1962    0.0000 C   0  0  0  0  0  0  0  0  0  0  0  0
    8.2500    6.4952    0.0000 C   0  0  0  0  0  0  0  0  0  0  0  0
    9.7500    6.4952    0.0000 C   0  0  0  0  0  0  0  0  0  0  0  0
   10.5000    7.7942    0.0000 C   0  0  0  0  0  0  0  0  0  0  0  0
   12.0000    7.7942    0.0000 C   0  0  0  0  0  0  0  0  0  0  0  0
   12.7500    6.4952    0.0000 O   0  0  0  0  0  0  0  0  0  0  0  0
   12.7500    9.0933    0.0000 N   0  0  0  0  0  0  0  0  0  0  0  0
   14.2500    9.0933    0.0000 O   0  0  0  0  0  0  0  0  0  0  0  0
  1  2  1  0
  2  3  1  0
  3  4  2  0
  4  5  1  0
  5  6  1  0
  5  7  2  0
  7  8  1  0
  8  9  1  0
  9 10  1  0
  8 11  2  0
 11 12  1  0
 12 13  2  3
 13 14  1  0
 14 15  1  0
 15 16  2  0
 15 17  1  0
 17 18  1  0
 18 19  1  0
 19 20  1  0
 20 21  1  0
 21 22  1  0
 22 23  2  0
 22 24  1  0
 24 25  1  0
 11  3  1  0
M  END
>  <molecule_chembl_id>  (899) 
CHEMBL3758246

>  <canonical_smiles>  (899) 
COc1cc(O)cc(OC)c1C=NNC(=O)CCCCCC(=O)NO

>  <pchembl_value_mean>  (899) 
6.97

>  <document_chembl_id>  (899) 
CHEMBL3758132

$$$$

     RDKit          2D

 35 39  0  0  0  0  0  0  0  0999 V2000
   -0.5864  -10.4561    0.0000 C   0  0  0  0  0  0  0  0  0  0  0  0
    0.6272   -9.5744    0.0000 C   0  0  0  0  0  0  0  0  0  0  0  0
    0.4704   -8.0826    0.0000 C   0  0  0  0  0  0  0  0  0  0  0  0
    1.6839   -7.2010    0.0000 C   0  0  0  0  0  0  0  0  0  0  0  0
    1.5271   -5.7092    0.0000 C   0  0  0  0  0  0  0  0  0  0  0  0
    0.1568   -5.0991    0.0000 N   0  0  0  0  0  0  0  0  0  0  0  0
   -0.0000   -3.6073    0.0000 C   0  0  0  0  0  0  0  0  0  0  0  0
   -1.2135   -2.7256    0.0000 S   0  0  0  0  0  0  0  0  0  0  0  0
   -0.7500   -1.2990    0.0000 C   0  0  0  0  0  0  0  0  0  0  0  0
    0.7500   -1.2990    0.0000 C   0  0  0  0  0  0  0  0  0  0  0  0
    1.2135   -2.7256    0.0000 C   0  0  0  0  0  0  0  0  0  0  0  0
    2.5838   -3.3357    0.0000 C   0  0  0  0  0  0  0  0  0  0  0  0
    3.7974   -2.4540    0.0000 O   0  0  0  0  0  0  0  0  0  0  0  0
    2.7406   -4.8275    0.0000 N   0  0  0  0  0  0  0  0  0  0  0  0
    1.5000    0.0000    0.0000 C   0  0  0  0  0  0  0  0  0  0  0  0
    0.7500    1.2990    0.0000 C   0  0  0  0  0  0  0  0  0  0  0  0
   -0.7500    1.2990    0.0000 N   0  0  0  0  0  0  0  0  0  0  0  0
   -1.5000    2.5981    0.0000 C   0  0  0  0  0  0  0  0  0  0  0  0
   -1.5000    0.0000    0.0000 C   0  0  0  0  0  0  0  0  0  0  0  0
    3.0542   -7.8111    0.0000 C   0  0  0  0  0  0  0  0  0  0  0  0
    3.2110   -9.3029    0.0000 C   0  0  0  0  0  0  0  0  0  0  0  0
    4.5813   -9.9130    0.0000 C   0  0  0  0  0  0  0  0  0  0  0  0
    1.9975  -10.1845    0.0000 C   0  0  0  0  0  0  0  0  0  0  0  0
    2.1543  -11.6763    0.0000 O   0  0  0  0  0  0  0  0  0  0  0  0
    0.9408  -12.5580    0.0000 C   0  0  0  0  0  0  0  0  0  0  0  0
    1.0975  -14.0498    0.0000 C   0  0  0  0  0  0  0  0  0  0  0  0
   -0.1160  -14.9315    0.0000 C   0  0  0  0  0  0  0  0  0  0  0  0
    0.0408  -16.4232    0.0000 C   0  0  0  0  0  0  0  0  0  0  0  0
    1.4111  -17.0333    0.0000 C   0  0  0  0  0  0  0  0  0  0  0  0
    1.5679  -18.5251    0.0000 C   0  0  0  0  0  0  0  0  0  0  0  0
    2.9382  -19.1352    0.0000 O   0  0  0  0  0  0  0  0  0  0  0  0
    0.3544  -19.4068    0.0000 N   0  0  0  0  0  0  0  0  0  0  0  0
    0.5112  -20.8986    0.0000 O   0  0  0  0  0  0  0  0  0  0  0  0
    2.6247  -16.1517    0.0000 C   0  0  0  0  0  0  0  0  0  0  0  0
    2.4679  -14.6599    0.0000 C   0  0  0  0  0  0  0  0  0  0  0  0
  1  2  1  0
  2  3  2  0
  3  4  1  0
  4  5  1  0
  5  6  2  0
  6  7  1  0
  7  8  1  0
  8  9  1  0
  9 10  2  0
 10 11  1  0
 11 12  1  0
 12 13  2  0
 12 14  1  0
 10 15  1  0
 15 16  1  0
 16 17  1  0
 17 18  1  0
 17 19  1  0
  4 20  2  0
 20 21  1  0
 21 22  1  0
 21 23  2  0
 23 24  1  0
 24 25  1  0
 25 26  1  0
 26 27  2  0
 27 28  1  0
 28 29  2  0
 29 30  1  0
 30 31  2  0
 30 32  1  0
 32 33  1  0
 29 34  1  0
 34 35  2  0
 23  2  1  0
 35 26  1  0
 14  5  1  0
 11  7  2  0
 19  9  1  0
M  END
>  <molecule_chembl_id>  (900) 
CHEMBL4592260

>  <canonical_smiles>  (900) 
Cc1cc(-c2nc3sc4c(c3c(=O)[nH]2)CCN(C)C4)cc(C)c1OCc1ccc(C(=O)NO)cc1

>  <pchembl_value_mean>  (900) 
6.98

>  <document_chembl_id>  (900) 
CHEMBL4342471

$$$$

     RDKit          2D

 26 27  0  0  0  0  0  0  0  0999 V2000
    5.6682   -9.1353    0.0000 C   0  0  0  0  0  0  0  0  0  0  0  0
    6.1317   -7.7087    0.0000 N   0  0  0  0  0  0  0  0  0  0  0  0
    7.5583   -7.2452    0.0000 C   0  0  0  0  0  0  0  0  0  0  0  0
    8.7718   -8.1269    0.0000 O   0  0  0  0  0  0  0  0  0  0  0  0
    7.5583   -5.7452    0.0000 C   0  0  0  0  0  0  0  0  0  0  0  0
    6.1317   -5.2817    0.0000 C   0  0  0  0  0  0  0  0  0  0  0  0
    5.2500   -6.4952    0.0000 C   0  0  0  0  0  0  0  0  0  0  0  0
    3.7500   -6.4952    0.0000 C   0  0  0  0  0  0  0  0  0  0  0  0
    3.0000   -7.7942    0.0000 O   0  0  0  0  0  0  0  0  0  0  0  0
    3.0000   -5.1962    0.0000 N   0  0  0  0  0  0  0  0  0  0  0  0
    1.5000   -5.1962    0.0000 C   0  0  0  0  0  0  0  0  0  0  0  0
    0.7500   -6.4952    0.0000 C   0  0  0  0  0  0  0  0  0  0  0  0
    1.5000   -7.7942    0.0000 C   0  0  0  0  0  0  0  0  0  0  0  0
    0.7500   -9.0933    0.0000 C   0  0  0  0  0  0  0  0  0  0  0  0
    1.5000  -10.3923    0.0000 C   0  0  0  0  0  0  0  0  0  0  0  0
    0.7500  -11.6913    0.0000 C   0  0  0  0  0  0  0  0  0  0  0  0
    1.5000  -12.9904    0.0000 S   0  0  0  0  0  0  0  0  0  0  0  0
    0.7500   -3.8971    0.0000 C   0  0  0  0  0  0  0  0  0  0  0  0
   -0.7500   -3.8971    0.0000 O   0  0  0  0  0  0  0  0  0  0  0  0
    1.5000   -2.5981    0.0000 N   0  0  0  0  0  0  0  0  0  0  0  0
    0.7500   -1.2990    0.0000 C   0  0  0  0  0  0  0  0  0  0  0  0
    1.5000    0.0000    0.0000 C   0  0  0  0  0  0  0  0  0  0  0  0
    0.7500    1.2990    0.0000 C   0  0  0  0  0  0  0  0  0  0  0  0
   -0.7500    1.2990    0.0000 C   0  0  0  0  0  0  0  0  0  0  0  0
   -1.5000    0.0000    0.0000 C   0  0  0  0  0  0  0  0  0  0  0  0
   -0.7500   -1.2990    0.0000 C   0  0  0  0  0  0  0  0  0  0  0  0
  1  2  1  0
  2  3  1  0
  3  4  2  0
  3  5  1  0
  5  6  1  0
  6  7  1  0
  7  8  1  0
  8  9  2  0
  8 10  1  0
 10 11  1  0
 11 12  1  0
 12 13  1  0
 13 14  1  0
 14 15  1  0
 15 16  1  0
 16 17  1  0
 11 18  1  0
 18 19  2  0
 18 20  1  0
 20 21  1  0
 21 22  2  0
 22 23  1  0
 23 24  2  0
 24 25  1  0
 25 26  2  0
  7  2  1  0
 26 21  1  0
M  END
>  <molecule_chembl_id>  (901) 
CHEMBL3356921

>  <canonical_smiles>  (901) 
CN1C(=O)CCC1C(=O)NC(CCCCCS)C(=O)Nc1ccccc1

>  <pchembl_value_mean>  (901) 
6.99

>  <document_chembl_id>  (901) 
CHEMBL3352570

$$$$

     RDKit          2D

 28 30  0  0  0  0  0  0  0  0999 V2000
    1.5000   -5.1962    0.0000 C   0  0  0  0  0  0  0  0  0  0  0  0
    0.7500   -3.8971    0.0000 C   0  0  0  0  0  0  0  0  0  0  0  0
    1.5000   -2.5981    0.0000 C   0  0  0  0  0  0  0  0  0  0  0  0
    3.0000   -2.5981    0.0000 O   0  0  0  0  0  0  0  0  0  0  0  0
    0.7500   -1.2990    0.0000 N   0  0  0  0  0  0  0  0  0  0  0  0
    1.5000    0.0000    0.0000 C   0  0  0  0  0  0  0  0  0  0  0  0
    0.7500    1.2990    0.0000 C   0  0  0  0  0  0  0  0  0  0  0  0
   -0.7500    1.2990    0.0000 C   0  0  0  0  0  0  0  0  0  0  0  0
   -2.1595    1.8121    0.0000 C   0  0  0  0  0  0  0  0  0  0  0  0
   -0.4895    2.7762    0.0000 N   0  0  0  0  0  0  0  0  0  0  0  0
    0.9200    3.2893    0.0000 C   0  0  0  0  0  0  0  0  0  0  0  0
    2.0691    2.3251    0.0000 N   0  0  0  0  0  0  0  0  0  0  0  0
    3.4786    2.8381    0.0000 C   0  0  0  0  0  0  0  0  0  0  0  0
    3.7391    4.3153    0.0000 C   0  0  0  0  0  0  0  0  0  0  0  0
    5.1486    4.8284    0.0000 C   0  0  0  0  0  0  0  0  0  0  0  0
    5.4091    6.3056    0.0000 O   0  0  0  0  0  0  0  0  0  0  0  0
    6.2977    3.8642    0.0000 N   0  0  0  0  0  0  0  0  0  0  0  0
    7.7072    4.3772    0.0000 O   0  0  0  0  0  0  0  0  0  0  0  0
    2.5900    5.2795    0.0000 C   0  0  0  0  0  0  0  0  0  0  0  0
    1.1805    4.7665    0.0000 N   0  0  0  0  0  0  0  0  0  0  0  0
   -1.5000    0.0000    0.0000 C   0  0  0  0  0  0  0  0  0  0  0  0
   -0.7500   -1.2990    0.0000 C   0  0  0  0  0  0  0  0  0  0  0  0
   -0.7500   -3.8971    0.0000 C   0  0  0  0  0  0  0  0  0  0  0  0
   -1.5000   -2.5981    0.0000 C   0  0  0  0  0  0  0  0  0  0  0  0
   -3.0000   -2.5981    0.0000 C   0  0  0  0  0  0  0  0  0  0  0  0
   -3.7500   -3.8971    0.0000 C   0  0  0  0  0  0  0  0  0  0  0  0
   -3.0000   -5.1962    0.0000 C   0  0  0  0  0  0  0  0  0  0  0  0
   -1.5000   -5.1962    0.0000 C   0  0  0  0  0  0  0  0  0  0  0  0
  1  2  1  0
  2  3  1  0
  3  4  2  0
  3  5  1  0
  5  6  1  0
  6  7  1  0
  7  8  1  0
  8  9  1  0
  8 10  1  0
 10 11  1  0
 11 12  2  0
 12 13  1  0
 13 14  2  0
 14 15  1  0
 15 16  2  0
 15 17  1  0
 17 18  1  0
 14 19  1  0
 19 20  2  0
  8 21  1  0
 21 22  1  0
  2 23  1  0
 23 24  2  0
 24 25  1  0
 25 26  2  0
 26 27  1  0
 27 28  2  0
 22  5  1  0
 28 23  1  0
 20 11  1  0
M  END
>  <molecule_chembl_id>  (902) 
CHEMBL4113424

>  <canonical_smiles>  (902) 
CC(C(=O)N1CCC(C)(Nc2ncc(C(=O)NO)cn2)CC1)c1ccccc1

>  <pchembl_value_mean>  (902) 
6.99

>  <document_chembl_id>  (902) 
CHEMBL3886590

$$$$

     RDKit          2D

 40 44  0  0  0  0  0  0  0  0999 V2000
   10.7824  -15.8378    0.0000 C   0  0  0  0  0  0  0  0  0  0  0  0
    9.4121  -15.2277    0.0000 C   0  0  0  0  0  0  0  0  0  0  0  0
    9.2553  -13.7359    0.0000 C   0  0  0  0  0  0  0  0  0  0  0  0
   10.4688  -12.8543    0.0000 O   0  0  0  0  0  0  0  0  0  0  0  0
    7.8850  -13.1258    0.0000 C   0  0  0  0  0  0  0  0  0  0  0  0
    7.7282  -11.6340    0.0000 C   0  0  0  0  0  0  0  0  0  0  0  0
    6.3579  -11.0239    0.0000 C   0  0  0  0  0  0  0  0  0  0  0  0
    6.2011   -9.5322    0.0000 C   0  0  0  0  0  0  0  0  0  0  0  0
    4.8308   -8.9221    0.0000 C   0  0  0  0  0  0  0  0  0  0  0  0
    4.6740   -7.4303    0.0000 C   0  0  0  0  0  0  0  0  0  0  0  0
    5.8875   -6.5486    0.0000 N   0  0  0  0  0  0  0  0  0  0  0  0
    7.2578   -7.1587    0.0000 C   0  0  0  0  0  0  0  0  0  0  0  0
    7.4146   -8.6505    0.0000 O   0  0  0  0  0  0  0  0  0  0  0  0
    8.4713   -6.2770    0.0000 C   0  0  0  0  0  0  0  0  0  0  0  0
    9.0814   -4.9067    0.0000 C   0  0  0  0  0  0  0  0  0  0  0  0
    9.9631   -6.1202    0.0000 C   0  0  0  0  0  0  0  0  0  0  0  0
   10.1199   -7.6120    0.0000 C   0  0  0  0  0  0  0  0  0  0  0  0
   11.4902   -8.2221    0.0000 C   0  0  0  0  0  0  0  0  0  0  0  0
   12.7038   -7.3404    0.0000 N   0  0  0  0  0  0  0  0  0  0  0  0
   14.0741   -7.9505    0.0000 C   0  0  0  0  0  0  0  0  0  0  0  0
   14.2309   -9.4423    0.0000 C   0  0  0  0  0  0  0  0  0  0  0  0
   12.5470   -5.8487    0.0000 C   0  0  0  0  0  0  0  0  0  0  0  0
   11.1766   -5.2386    0.0000 C   0  0  0  0  0  0  0  0  0  0  0  0
    3.3037   -6.8202    0.0000 C   0  0  0  0  0  0  0  0  0  0  0  0
    2.0046   -7.5702    0.0000 N   0  0  0  0  0  0  0  0  0  0  0  0
    0.8899   -6.5665    0.0000 N   0  0  0  0  0  0  0  0  0  0  0  0
    1.5000   -5.1962    0.0000 C   0  0  0  0  0  0  0  0  0  0  0  0
    0.7500   -3.8971    0.0000 C   0  0  0  0  0  0  0  0  0  0  0  0
    1.5000   -2.5981    0.0000 C   0  0  0  0  0  0  0  0  0  0  0  0
    0.7500   -1.2990    0.0000 C   0  0  0  0  0  0  0  0  0  0  0  0
    1.5000    0.0000    0.0000 C   0  0  0  0  0  0  0  0  0  0  0  0
    0.7500    1.2990    0.0000 C   0  0  0  0  0  0  0  0  0  0  0  0
   -0.7500    1.2990    0.0000 C   0  0  0  0  0  0  0  0  0  0  0  0
   -1.5000    0.0000    0.0000 C   0  0  0  0  0  0  0  0  0  0  0  0
   -0.7500   -1.2990    0.0000 C   0  0  0  0  0  0  0  0  0  0  0  0
   -1.5000   -2.5981    0.0000 N   0  0  0  0  0  0  0  0  0  0  0  0
   -0.7500   -3.8971    0.0000 C   0  0  0  0  0  0  0  0  0  0  0  0
   -1.5000   -5.1962    0.0000 O   0  0  0  0  0  0  0  0  0  0  0  0
   -3.0000   -5.1962    0.0000 C   0  0  0  0  0  0  0  0  0  0  0  0
    2.9918   -5.3529    0.0000 N   0  0  0  0  0  0  0  0  0  0  0  0
  1  2  1  0
  2  3  1  0
  3  4  2  0
  3  5  1  0
  5  6  1  0
  6  7  1  0
  7  8  1  0
  8  9  1  0
  9 10  1  0
 10 11  1  0
 11 12  1  0
 12 13  2  0
 12 14  1  0
 14 15  1  0
 15 16  1  0
 16 17  1  0
 17 18  1  0
 18 19  1  0
 19 20  1  0
 20 21  1  0
 19 22  1  0
 22 23  1  0
 10 24  1  0
 24 25  2  0
 25 26  1  0
 26 27  2  0
 27 28  1  0
 28 29  2  0
 29 30  1  0
 30 31  2  0
 31 32  1  0
 32 33  2  0
 33 34  1  0
 34 35  2  0
 35 36  1  0
 36 37  2  0
 37 38  1  0
 38 39  1  0
 27 40  1  0
 16 14  1  0
 40 24  1  0
 23 16  1  0
 37 28  1  0
 35 30  1  0
M  END
>  <molecule_chembl_id>  (903) 
CHEMBL4635878

>  <canonical_smiles>  (903) 
CCC(=O)CCCCCC(NC(=O)C1CC12CCN(CC)CC2)c1nnc(-c2cc3ccccc3nc2OC)[nH]1

>  <pchembl_value_mean>  (903) 
6.99

>  <document_chembl_id>  (903) 
CHEMBL4622849

$$$$

     RDKit          2D

 15 15  0  0  0  0  0  0  0  0999 V2000
    9.7500   -3.8971    0.0000 C   0  0  0  0  0  0  0  0  0  0  0  0
    8.2500   -3.8971    0.0000 C   0  0  0  0  0  0  0  0  0  0  0  0
    7.5000   -2.5981    0.0000 C   0  0  0  0  0  0  0  0  0  0  0  0
    6.0000   -2.5981    0.0000 C   0  0  0  0  0  0  0  0  0  0  0  0
    5.2500   -1.2990    0.0000 N   0  0  0  0  0  0  0  0  0  0  0  0
    3.7500   -1.2990    0.0000 N   0  0  0  0  0  0  0  0  0  0  0  0
    3.0000    0.0000    0.0000 C   0  0  0  0  0  0  0  0  0  0  0  0
    3.7500    1.2990    0.0000 O   0  0  0  0  0  0  0  0  0  0  0  0
    1.5000    0.0000    0.0000 C   0  0  0  0  0  0  0  0  0  0  0  0
    0.7500   -1.2990    0.0000 C   0  0  0  0  0  0  0  0  0  0  0  0
   -0.7500   -1.2990    0.0000 C   0  0  0  0  0  0  0  0  0  0  0  0
   -1.5000    0.0000    0.0000 C   0  0  0  0  0  0  0  0  0  0  0  0
   -3.0000    0.0000    0.0000 Br  0  0  0  0  0  0  0  0  0  0  0  0
   -0.7500    1.2990    0.0000 C   0  0  0  0  0  0  0  0  0  0  0  0
    0.7500    1.2990    0.0000 C   0  0  0  0  0  0  0  0  0  0  0  0
  1  2  1  0
  2  3  1  0
  3  4  1  0
  4  5  1  0
  5  6  1  0
  6  7  1  0
  7  8  2  0
  7  9  1  0
  9 10  2  0
 10 11  1  0
 11 12  2  0
 12 13  1  0
 12 14  1  0
 14 15  2  0
 15  9  1  0
M  END
>  <molecule_chembl_id>  (904) 
CHEMBL4303643

>  <canonical_smiles>  (904) 
CCCCNNC(=O)c1ccc(Br)cc1

>  <pchembl_value_mean>  (904) 
7.0

>  <document_chembl_id>  (904) 
CHEMBL4765362

$$$$

     RDKit          2D

 34 37  0  0  0  0  0  0  0  0999 V2000
    3.7500   -1.2990    0.0000 C   0  0  0  0  0  0  0  0  0  0  0  0
    3.0000    0.0000    0.0000 O   0  0  0  0  0  0  0  0  0  0  0  0
    1.5000    0.0000    0.0000 C   0  0  0  0  0  0  0  0  0  0  0  0
    0.7500   -1.2990    0.0000 C   0  0  0  0  0  0  0  0  0  0  0  0
   -0.7500   -1.2990    0.0000 C   0  0  0  0  0  0  0  0  0  0  0  0
   -1.5000    0.0000    0.0000 C   0  0  0  0  0  0  0  0  0  0  0  0
   -3.0000    0.0000    0.0000 N   0  0  0  0  0  0  0  0  0  0  0  0
   -3.7500    1.2990    0.0000 C   0  0  0  0  0  0  0  0  0  0  0  0
   -5.2500    1.2990    0.0000 C   0  0  0  0  0  0  0  0  0  0  0  0
   -6.0000    2.5981    0.0000 C   0  0  0  0  0  0  0  0  0  0  0  0
   -7.5000    2.5981    0.0000 C   0  0  0  0  0  0  0  0  0  0  0  0
   -8.2500    1.2990    0.0000 C   0  0  0  0  0  0  0  0  0  0  0  0
   -9.7500    1.2990    0.0000 C   0  0  0  0  0  0  0  0  0  0  0  0
  -10.5000    0.0000    0.0000 O   0  0  0  0  0  0  0  0  0  0  0  0
  -10.5000    2.5981    0.0000 N   0  0  0  0  0  0  0  0  0  0  0  0
  -12.0000    2.5981    0.0000 C   0  0  0  0  0  0  0  0  0  0  0  0
  -12.7500    3.8971    0.0000 C   0  0  0  0  0  0  0  0  0  0  0  0
  -14.2500    3.8971    0.0000 C   0  0  0  0  0  0  0  0  0  0  0  0
  -15.0000    5.1962    0.0000 C   0  0  0  0  0  0  0  0  0  0  0  0
  -14.2500    6.4952    0.0000 C   0  0  0  0  0  0  0  0  0  0  0  0
  -15.0000    7.7942    0.0000 C   0  0  0  0  0  0  0  0  0  0  0  0
  -16.5000    7.7942    0.0000 C   0  0  0  0  0  0  0  0  0  0  0  0
  -17.2500    6.4952    0.0000 C   0  0  0  0  0  0  0  0  0  0  0  0
  -16.5000    5.1962    0.0000 C   0  0  0  0  0  0  0  0  0  0  0  0
  -15.0000    2.5981    0.0000 C   0  0  0  0  0  0  0  0  0  0  0  0
  -14.2500    1.2990    0.0000 C   0  0  0  0  0  0  0  0  0  0  0  0
  -12.7500    1.2990    0.0000 C   0  0  0  0  0  0  0  0  0  0  0  0
  -12.0000    0.0000    0.0000 N   0  0  0  0  0  0  0  0  0  0  0  0
   -7.5000    0.0000    0.0000 C   0  0  0  0  0  0  0  0  0  0  0  0
   -6.0000    0.0000    0.0000 C   0  0  0  0  0  0  0  0  0  0  0  0
   -0.7500    1.2990    0.0000 C   0  0  0  0  0  0  0  0  0  0  0  0
    0.7500    1.2990    0.0000 C   0  0  0  0  0  0  0  0  0  0  0  0
    1.5000    2.5981    0.0000 O   0  0  0  0  0  0  0  0  0  0  0  0
    0.7500    3.8971    0.0000 C   0  0  0  0  0  0  0  0  0  0  0  0
  1  2  1  0
  2  3  1  0
  3  4  2  0
  4  5  1  0
  5  6  2  0
  6  7  1  0
  7  8  1  0
  8  9  1  0
  9 10  2  0
 10 11  1  0
 11 12  2  0
 12 13  1  0
 13 14  2  0
 13 15  1  0
 15 16  1  0
 16 17  2  0
 17 18  1  0
 18 19  1  0
 19 20  2  0
 20 21  1  0
 21 22  2  0
 22 23  1  0
 23 24  2  0
 18 25  2  0
 25 26  1  0
 26 27  2  0
 27 28  1  0
 12 29  1  0
 29 30  2  0
  6 31  1  0
 31 32  2  0
 32 33  1  0
 33 34  1  0
 32  3  1  0
 30  9  1  0
 27 16  1  0
 24 19  1  0
M  END
>  <molecule_chembl_id>  (905) 
CHEMBL392747

>  <canonical_smiles>  (905) 
COc1ccc(NCc2ccc(C(=O)Nc3cc(-c4ccccc4)ccc3N)cc2)cc1OC

>  <pchembl_value_mean>  (905) 
7.0

>  <document_chembl_id>  (905) 
CHEMBL1138236

$$$$

     RDKit          2D

 33 36  0  0  0  0  0  0  0  0999 V2000
   11.4010   -1.5504    0.0000 C   0  0  0  0  0  0  0  0  0  0  0  0
   10.1875   -2.4321    0.0000 N   0  0  0  0  0  0  0  0  0  0  0  0
    9.9529   -3.9136    0.0000 C   0  0  0  0  0  0  0  0  0  0  0  0
    8.4713   -3.6789    0.0000 C   0  0  0  0  0  0  0  0  0  0  0  0
    7.2578   -4.5606    0.0000 C   0  0  0  0  0  0  0  0  0  0  0  0
    7.4146   -6.0524    0.0000 O   0  0  0  0  0  0  0  0  0  0  0  0
    5.8875   -3.9505    0.0000 N   0  0  0  0  0  0  0  0  0  0  0  0
    4.6740   -4.8322    0.0000 C   0  0  0  0  0  0  0  0  0  0  0  0
    4.8308   -6.3240    0.0000 C   0  0  0  0  0  0  0  0  0  0  0  0
    6.2011   -6.9341    0.0000 C   0  0  0  0  0  0  0  0  0  0  0  0
    6.3579   -8.4259    0.0000 C   0  0  0  0  0  0  0  0  0  0  0  0
    7.7282   -9.0360    0.0000 C   0  0  0  0  0  0  0  0  0  0  0  0
    7.8850  -10.5278    0.0000 C   0  0  0  0  0  0  0  0  0  0  0  0
    9.2553  -11.1379    0.0000 C   0  0  0  0  0  0  0  0  0  0  0  0
   10.4688  -10.2562    0.0000 O   0  0  0  0  0  0  0  0  0  0  0  0
    9.4121  -12.6296    0.0000 C   0  0  0  0  0  0  0  0  0  0  0  0
   10.7111  -13.3796    0.0000 C   0  0  0  0  0  0  0  0  0  0  0  0
   10.3993  -14.8469    0.0000 C   0  0  0  0  0  0  0  0  0  0  0  0
    8.9075  -15.0037    0.0000 O   0  0  0  0  0  0  0  0  0  0  0  0
    8.2974  -13.6333    0.0000 N   0  0  0  0  0  0  0  0  0  0  0  0
    3.3037   -4.2221    0.0000 C   0  0  0  0  0  0  0  0  0  0  0  0
    2.0046   -4.9721    0.0000 N   0  0  0  0  0  0  0  0  0  0  0  0
    0.8899   -3.9684    0.0000 N   0  0  0  0  0  0  0  0  0  0  0  0
    1.5000   -2.5981    0.0000 C   0  0  0  0  0  0  0  0  0  0  0  0
    0.7500   -1.2990    0.0000 C   0  0  0  0  0  0  0  0  0  0  0  0
    1.5000    0.0000    0.0000 C   0  0  0  0  0  0  0  0  0  0  0  0
    0.7500    1.2990    0.0000 C   0  0  0  0  0  0  0  0  0  0  0  0
   -0.7500    1.2990    0.0000 C   0  0  0  0  0  0  0  0  0  0  0  0
   -1.5000    0.0000    0.0000 C   0  0  0  0  0  0  0  0  0  0  0  0
   -0.7500   -1.2990    0.0000 C   0  0  0  0  0  0  0  0  0  0  0  0
   -1.5000   -2.5981    0.0000 F   0  0  0  0  0  0  0  0  0  0  0  0
    2.9918   -2.7549    0.0000 O   0  0  0  0  0  0  0  0  0  0  0  0
    8.7060   -2.1974    0.0000 C   0  0  0  0  0  0  0  0  0  0  0  0
  1  2  1  0
  2  3  1  0
  3  4  1  0
  4  5  1  0
  5  6  2  0
  5  7  1  0
  7  8  1  0
  8  9  1  0
  9 10  1  0
 10 11  1  0
 11 12  1  0
 12 13  1  0
 13 14  1  0
 14 15  2  0
 14 16  1  0
 16 17  1  0
 17 18  2  0
 18 19  1  0
 19 20  1  0
  8 21  1  0
 21 22  2  0
 22 23  1  0
 23 24  2  0
 24 25  1  0
 25 26  2  0
 26 27  1  0
 27 28  2  0
 28 29  1  0
 29 30  2  0
 30 31  1  0
 24 32  1  0
  4 33  1  0
 33  2  1  0
 20 16  2  0
 32 21  1  0
 30 25  1  0
M  END
>  <molecule_chembl_id>  (906) 
CHEMBL4647164

>  <canonical_smiles>  (906) 
CN1CC(C(=O)NC(CCCCCC(=O)c2ccon2)c2nnc(-c3ccccc3F)o2)C1

>  <pchembl_value_mean>  (906) 
7.0

>  <document_chembl_id>  (906) 
CHEMBL4622967

$$$$

     RDKit          2D

 32 36  0  0  0  0  0  0  0  0999 V2000
   -0.7500  -11.6913    0.0000 O   0  0  0  0  0  0  0  0  0  0  0  0
   -1.5000  -10.3923    0.0000 C   0  0  0  0  0  0  0  0  0  0  0  0
   -3.0000  -10.3923    0.0000 N   0  0  0  0  0  0  0  0  0  0  0  0
   -3.7500  -11.6913    0.0000 O   0  0  0  0  0  0  0  0  0  0  0  0
   -0.7500   -9.0933    0.0000 C   0  0  0  0  0  0  0  0  0  0  0  0
   -1.5000   -7.7942    0.0000 C   0  0  0  0  0  0  0  0  0  0  0  0
   -0.7500   -6.4952    0.0000 C   0  0  0  0  0  0  0  0  0  0  0  0
    0.7500   -6.4952    0.0000 C   0  0  0  0  0  0  0  0  0  0  0  0
    1.5000   -5.1962    0.0000 C   0  0  0  0  0  0  0  0  0  0  0  0
    0.7500   -3.8971    0.0000 N   0  0  0  0  0  0  0  0  0  0  0  0
    1.5000   -2.5981    0.0000 C   0  0  0  0  0  0  0  0  0  0  0  0
    3.0000   -2.5981    0.0000 O   0  0  0  0  0  0  0  0  0  0  0  0
    0.7500   -1.2990    0.0000 C   0  0  0  0  0  0  0  0  0  0  0  0
    1.5000    0.0000    0.0000 C   0  0  0  0  0  0  0  0  0  0  0  0
    0.7500    1.2990    0.0000 C   0  0  0  0  0  0  0  0  0  0  0  0
   -0.7500    1.2990    0.0000 C   0  0  0  0  0  0  0  0  0  0  0  0
   -1.5000    0.0000    0.0000 C   0  0  0  0  0  0  0  0  0  0  0  0
   -3.0000    0.0000    0.0000 C   0  0  0  0  0  0  0  0  0  0  0  0
   -3.7500    1.2990    0.0000 N   0  0  0  0  0  0  0  0  0  0  0  0
   -3.0000    2.5981    0.0000 C   0  0  0  0  0  0  0  0  0  0  0  0
   -3.7500    3.8971    0.0000 C   0  0  0  0  0  0  0  0  0  0  0  0
   -5.2500    3.8971    0.0000 O   0  0  0  0  0  0  0  0  0  0  0  0
   -6.0000    2.5981    0.0000 C   0  0  0  0  0  0  0  0  0  0  0  0
   -5.2500    1.2990    0.0000 C   0  0  0  0  0  0  0  0  0  0  0  0
   -3.7500   -1.2990    0.0000 C   0  0  0  0  0  0  0  0  0  0  0  0
   -3.0000   -2.5981    0.0000 C   0  0  0  0  0  0  0  0  0  0  0  0
   -1.5000   -2.5981    0.0000 C   0  0  0  0  0  0  0  0  0  0  0  0
   -0.7500   -1.2990    0.0000 C   0  0  0  0  0  0  0  0  0  0  0  0
   -0.7500   -3.8971    0.0000 C   0  0  0  0  0  0  0  0  0  0  0  0
   -1.5000   -5.1962    0.0000 O   0  0  0  0  0  0  0  0  0  0  0  0
    1.5000   -7.7942    0.0000 C   0  0  0  0  0  0  0  0  0  0  0  0
    0.7500   -9.0933    0.0000 C   0  0  0  0  0  0  0  0  0  0  0  0
  1  2  2  0
  2  3  1  0
  3  4  1  0
  2  5  1  0
  5  6  2  0
  6  7  1  0
  7  8  2  0
  8  9  1  0
  9 10  1  0
 10 11  1  0
 11 12  2  0
 11 13  1  0
 13 14  2  0
 14 15  1  0
 15 16  2  0
 16 17  1  0
 17 18  2  0
 18 19  1  0
 19 20  1  0
 20 21  1  0
 21 22  1  0
 22 23  1  0
 23 24  1  0
 18 25  1  0
 25 26  2  0
 26 27  1  0
 27 28  2  0
 27 29  1  0
 29 30  2  0
  8 31  1  0
 31 32  2  0
 32  5  1  0
 29 10  1  0
 28 13  1  0
 28 17  1  0
 24 19  1  0
M  END
>  <molecule_chembl_id>  (907) 
CHEMBL4176291

>  <canonical_smiles>  (907) 
O=C(NO)c1ccc(CN2C(=O)c3cccc4c(N5CCOCC5)ccc(c34)C2=O)cc1

>  <pchembl_value_mean>  (907) 
7.0

>  <document_chembl_id>  (907) 
CHEMBL4138147

$$$$

     RDKit          2D

 29 31  0  0  0  0  0  0  0  0999 V2000
   -2.6491   -1.6339    0.0000 C   0  0  0  0  0  0  0  0  0  0  0  0
   -1.5000   -2.5981    0.0000 C   0  0  0  0  0  0  0  0  0  0  0  0
   -2.6491   -3.5623    0.0000 C   0  0  0  0  0  0  0  0  0  0  0  0
   -0.7500   -3.8971    0.0000 C   0  0  0  0  0  0  0  0  0  0  0  0
    0.7500   -3.8971    0.0000 C   0  0  0  0  0  0  0  0  0  0  0  0
    1.5000   -5.1962    0.0000 O   0  0  0  0  0  0  0  0  0  0  0  0
    1.5000   -2.5981    0.0000 N   0  0  0  0  0  0  0  0  0  0  0  0
    0.7500   -1.2990    0.0000 C   0  0  0  0  0  0  0  0  0  0  0  0
    1.5000    0.0000    0.0000 C   0  0  0  0  0  0  0  0  0  0  0  0
    0.7500    1.2990    0.0000 C   0  0  0  0  0  0  0  0  0  0  0  0
   -0.7500    1.2990    0.0000 C   0  0  0  0  0  0  0  0  0  0  0  0
   -1.5000    2.5981    0.0000 C   0  0  0  0  0  0  0  0  0  0  0  0
   -3.0000    2.5981    0.0000 O   0  0  0  0  0  0  0  0  0  0  0  0
   -0.7500    3.8971    0.0000 N   0  0  0  0  0  0  0  0  0  0  0  0
   -1.5000    5.1962    0.0000 C   0  0  0  0  0  0  0  0  0  0  0  0
   -0.7500    6.4952    0.0000 C   0  0  0  0  0  0  0  0  0  0  0  0
    0.7500    6.4952    0.0000 C   0  0  0  0  0  0  0  0  0  0  0  0
    1.5000    7.7942    0.0000 C   0  0  0  0  0  0  0  0  0  0  0  0
    0.7500    9.0933    0.0000 C   0  0  0  0  0  0  0  0  0  0  0  0
   -0.7500    9.0933    0.0000 C   0  0  0  0  0  0  0  0  0  0  0  0
   -1.5000   10.3923    0.0000 C   0  0  0  0  0  0  0  0  0  0  0  0
   -0.7500   11.6913    0.0000 C   0  0  0  0  0  0  0  0  0  0  0  0
   -1.5000   12.9904    0.0000 C   0  0  0  0  0  0  0  0  0  0  0  0
   -3.0000   12.9904    0.0000 O   0  0  0  0  0  0  0  0  0  0  0  0
   -0.7500   14.2894    0.0000 N   0  0  0  0  0  0  0  0  0  0  0  0
   -1.5000   15.5885    0.0000 O   0  0  0  0  0  0  0  0  0  0  0  0
   -1.5000    7.7942    0.0000 C   0  0  0  0  0  0  0  0  0  0  0  0
   -1.5000    0.0000    0.0000 C   0  0  0  0  0  0  0  0  0  0  0  0
   -0.7500   -1.2990    0.0000 C   0  0  0  0  0  0  0  0  0  0  0  0
  1  2  1  0
  2  3  1  0
  2  4  1  0
  4  5  1  0
  5  6  2  0
  5  7  1  0
  7  8  1  0
  8  9  2  0
  9 10  1  0
 10 11  2  0
 11 12  1  0
 12 13  2  0
 12 14  1  0
 14 15  1  0
 15 16  1  0
 16 17  2  0
 17 18  1  0
 18 19  2  0
 19 20  1  0
 20 21  1  0
 21 22  2  3
 22 23  1  0
 23 24  2  0
 23 25  1  0
 25 26  1  0
 20 27  2  0
 11 28  1  0
 28 29  2  0
 29  2  1  0
 29  8  1  0
 27 16  1  0
M  END
>  <molecule_chembl_id>  (908) 
CHEMBL3309290

>  <canonical_smiles>  (908) 
CC1(C)CC(=O)Nc2ccc(C(=O)NCc3cccc(C=CC(=O)NO)c3)cc21

>  <pchembl_value_mean>  (908) 
7.0

>  <document_chembl_id>  (908) 
CHEMBL3351757

$$$$

     RDKit          2D

 27 28  0  0  0  0  0  0  0  0999 V2000
   -3.0000   -2.5981    0.0000 C   0  0  0  0  0  0  0  0  0  0  0  0
   -1.5000   -2.5981    0.0000 N   0  0  0  0  0  0  0  0  0  0  0  0
   -0.7500   -3.8971    0.0000 C   0  0  0  0  0  0  0  0  0  0  0  0
   -1.5000   -5.1962    0.0000 O   0  0  0  0  0  0  0  0  0  0  0  0
    0.7500   -3.8971    0.0000 C   0  0  0  0  0  0  0  0  0  0  0  0
    1.5000   -2.5981    0.0000 C   0  0  0  0  0  0  0  0  0  0  0  0
    2.6491   -3.5623    0.0000 C   0  0  0  0  0  0  0  0  0  0  0  0
    2.6491   -1.6339    0.0000 C   0  0  0  0  0  0  0  0  0  0  0  0
    0.7500   -1.2990    0.0000 C   0  0  0  0  0  0  0  0  0  0  0  0
    1.5000    0.0000    0.0000 C   0  0  0  0  0  0  0  0  0  0  0  0
    0.7500    1.2990    0.0000 C   0  0  0  0  0  0  0  0  0  0  0  0
    1.5000    2.5981    0.0000 C   0  0  0  0  0  0  0  0  0  0  0  0
    0.7500    3.8971    0.0000 O   0  0  0  0  0  0  0  0  0  0  0  0
    3.0000    2.5981    0.0000 N   0  0  0  0  0  0  0  0  0  0  0  0
    3.7500    3.8971    0.0000 C   0  0  0  0  0  0  0  0  0  0  0  0
    5.2500    3.8971    0.0000 C   0  0  0  0  0  0  0  0  0  0  0  0
    6.0000    5.1962    0.0000 C   0  0  0  0  0  0  0  0  0  0  0  0
    7.5000    5.1962    0.0000 C   0  0  0  0  0  0  0  0  0  0  0  0
    8.2500    6.4952    0.0000 C   0  0  0  0  0  0  0  0  0  0  0  0
    9.7500    6.4952    0.0000 C   0  0  0  0  0  0  0  0  0  0  0  0
   10.5000    7.7942    0.0000 C   0  0  0  0  0  0  0  0  0  0  0  0
    9.7500    9.0933    0.0000 O   0  0  0  0  0  0  0  0  0  0  0  0
   12.0000    7.7942    0.0000 N   0  0  0  0  0  0  0  0  0  0  0  0
   12.7500    9.0933    0.0000 O   0  0  0  0  0  0  0  0  0  0  0  0
   -0.7500    1.2990    0.0000 C   0  0  0  0  0  0  0  0  0  0  0  0
   -1.5000    0.0000    0.0000 C   0  0  0  0  0  0  0  0  0  0  0  0
   -0.7500   -1.2990    0.0000 C   0  0  0  0  0  0  0  0  0  0  0  0
  1  2  1  0
  2  3  1  0
  3  4  2  0
  3  5  1  0
  5  6  1  0
  6  7  1  0
  6  8  1  0
  6  9  1  0
  9 10  2  0
 10 11  1  0
 11 12  1  0
 12 13  2  0
 12 14  1  0
 14 15  1  0
 15 16  1  0
 16 17  1  0
 17 18  1  0
 18 19  1  0
 19 20  1  0
 20 21  1  0
 21 22  2  0
 21 23  1  0
 23 24  1  0
 11 25  2  0
 25 26  1  0
 26 27  2  0
 27  2  1  0
 27  9  1  0
M  END
>  <molecule_chembl_id>  (909) 
CHEMBL3309286

>  <canonical_smiles>  (909) 
CN1C(=O)CC(C)(C)c2cc(C(=O)NCCCCCCC(=O)NO)ccc21

>  <pchembl_value_mean>  (909) 
7.0

>  <document_chembl_id>  (909) 
CHEMBL3351757

$$$$

     RDKit          2D

 39 42  0  0  0  0  0  0  0  0999 V2000
    3.7500   -1.2990    0.0000 C   0  0  0  0  0  0  0  0  0  0  0  0
    3.0000    0.0000    0.0000 O   0  0  0  0  0  0  0  0  0  0  0  0
    1.5000    0.0000    0.0000 C   0  0  0  0  0  0  0  0  0  0  0  0
    0.7500   -1.2990    0.0000 C   0  0  0  0  0  0  0  0  0  0  0  0
   -0.7500   -1.2990    0.0000 C   0  0  0  0  0  0  0  0  0  0  0  0
   -1.5000   -2.5981    0.0000 O   0  0  0  0  0  0  0  0  0  0  0  0
   -0.7500   -3.8971    0.0000 C   0  0  0  0  0  0  0  0  0  0  0  0
   -1.5000    0.0000    0.0000 C   0  0  0  0  0  0  0  0  0  0  0  0
   -3.0000    0.0000    0.0000 C   0  0  0  0  0  0  0  0  0  0  0  0
   -3.7500   -1.2990    0.0000 N   0  0  0  0  0  0  0  0  0  0  0  0
   -5.2500   -1.2990    0.0000 C   0  0  0  0  0  0  0  0  0  0  0  0
   -6.0000   -2.5981    0.0000 C   0  0  0  0  0  0  0  0  0  0  0  0
   -5.2500   -3.8971    0.0000 N   0  0  0  0  0  0  0  0  0  0  0  0
   -6.0000   -5.1962    0.0000 C   0  0  0  0  0  0  0  0  0  0  0  0
   -3.7500   -3.8971    0.0000 C   0  0  0  0  0  0  0  0  0  0  0  0
   -3.0000   -2.5981    0.0000 C   0  0  0  0  0  0  0  0  0  0  0  0
   -3.7500    1.2990    0.0000 N   0  0  0  0  0  0  0  0  0  0  0  0
   -3.0000    2.5981    0.0000 C   0  0  0  0  0  0  0  0  0  0  0  0
   -3.7500    3.8971    0.0000 C   0  0  0  0  0  0  0  0  0  0  0  0
   -3.0000    5.1962    0.0000 C   0  0  0  0  0  0  0  0  0  0  0  0
   -3.7500    6.4952    0.0000 C   0  0  0  0  0  0  0  0  0  0  0  0
   -3.0000    7.7942    0.0000 C   0  0  0  0  0  0  0  0  0  0  0  0
   -5.2500    6.4952    0.0000 C   0  0  0  0  0  0  0  0  0  0  0  0
   -6.0000    7.7942    0.0000 O   0  0  0  0  0  0  0  0  0  0  0  0
   -7.5000    7.7942    0.0000 C   0  0  0  0  0  0  0  0  0  0  0  0
   -8.2500    9.0933    0.0000 C   0  0  0  0  0  0  0  0  0  0  0  0
   -9.7500    9.0933    0.0000 C   0  0  0  0  0  0  0  0  0  0  0  0
  -10.5000   10.3923    0.0000 C   0  0  0  0  0  0  0  0  0  0  0  0
  -12.0000   10.3923    0.0000 C   0  0  0  0  0  0  0  0  0  0  0  0
  -12.7500   11.6913    0.0000 C   0  0  0  0  0  0  0  0  0  0  0  0
  -12.0000   12.9904    0.0000 O   0  0  0  0  0  0  0  0  0  0  0  0
  -14.2500   11.6913    0.0000 N   0  0  0  0  0  0  0  0  0  0  0  0
  -15.0000   12.9904    0.0000 O   0  0  0  0  0  0  0  0  0  0  0  0
   -6.0000    5.1962    0.0000 C   0  0  0  0  0  0  0  0  0  0  0  0
   -7.5000    5.1962    0.0000 C   0  0  0  0  0  0  0  0  0  0  0  0
   -5.2500    3.8971    0.0000 C   0  0  0  0  0  0  0  0  0  0  0  0
   -1.5000    2.5981    0.0000 N   0  0  0  0  0  0  0  0  0  0  0  0
   -0.7500    1.2990    0.0000 C   0  0  0  0  0  0  0  0  0  0  0  0
    0.7500    1.2990    0.0000 C   0  0  0  0  0  0  0  0  0  0  0  0
  1  2  1  0
  2  3  1  0
  3  4  2  0
  4  5  1  0
  5  6  1  0
  6  7  1  0
  5  8  2  0
  8  9  1  0
  9 10  1  0
 10 11  1  0
 11 12  1  0
 12 13  1  0
 13 14  1  0
 13 15  1  0
 15 16  1  0
  9 17  2  0
 17 18  1  0
 18 19  1  0
 19 20  2  0
 20 21  1  0
 21 22  1  0
 21 23  2  0
 23 24  1  0
 24 25  1  0
 25 26  1  0
 26 27  1  0
 27 28  1  0
 28 29  1  0
 29 30  1  0
 30 31  2  0
 30 32  1  0
 32 33  1  0
 23 34  1  0
 34 35  1  0
 34 36  2  0
 18 37  2  0
 37 38  1  0
 38 39  2  0
 39  3  1  0
 38  8  1  0
 16 10  1  0
 36 19  1  0
M  END
>  <molecule_chembl_id>  (910) 
CHEMBL4781177

>  <canonical_smiles>  (910) 
COc1cc(OC)c2c(N3CCN(C)CC3)nc(-c3cc(C)c(OCCCCCC(=O)NO)c(C)c3)nc2c1

>  <pchembl_value_mean>  (910) 
7.01

>  <document_chembl_id>  (910) 
CHEMBL4765420

$$$$

     RDKit          2D

 37 41  0  0  0  0  0  0  0  0999 V2000
   -0.5864  -10.4561    0.0000 C   0  0  0  0  0  0  0  0  0  0  0  0
    0.6272   -9.5744    0.0000 C   0  0  0  0  0  0  0  0  0  0  0  0
    0.4704   -8.0826    0.0000 C   0  0  0  0  0  0  0  0  0  0  0  0
    1.6839   -7.2010    0.0000 C   0  0  0  0  0  0  0  0  0  0  0  0
    1.5271   -5.7092    0.0000 C   0  0  0  0  0  0  0  0  0  0  0  0
    0.1568   -5.0991    0.0000 N   0  0  0  0  0  0  0  0  0  0  0  0
   -0.0000   -3.6073    0.0000 C   0  0  0  0  0  0  0  0  0  0  0  0
   -1.2135   -2.7256    0.0000 S   0  0  0  0  0  0  0  0  0  0  0  0
   -0.7500   -1.2990    0.0000 C   0  0  0  0  0  0  0  0  0  0  0  0
    0.7500   -1.2990    0.0000 C   0  0  0  0  0  0  0  0  0  0  0  0
    1.2135   -2.7256    0.0000 C   0  0  0  0  0  0  0  0  0  0  0  0
    2.5838   -3.3357    0.0000 C   0  0  0  0  0  0  0  0  0  0  0  0
    3.7974   -2.4540    0.0000 O   0  0  0  0  0  0  0  0  0  0  0  0
    2.7406   -4.8275    0.0000 N   0  0  0  0  0  0  0  0  0  0  0  0
    1.5000    0.0000    0.0000 C   0  0  0  0  0  0  0  0  0  0  0  0
    0.7500    1.2990    0.0000 C   0  0  0  0  0  0  0  0  0  0  0  0
   -0.7500    1.2990    0.0000 N   0  0  0  0  0  0  0  0  0  0  0  0
   -1.5000    2.5981    0.0000 C   0  0  0  0  0  0  0  0  0  0  0  0
   -1.5000    0.0000    0.0000 C   0  0  0  0  0  0  0  0  0  0  0  0
    3.0542   -7.8111    0.0000 C   0  0  0  0  0  0  0  0  0  0  0  0
    3.2110   -9.3029    0.0000 C   0  0  0  0  0  0  0  0  0  0  0  0
    4.5813   -9.9130    0.0000 C   0  0  0  0  0  0  0  0  0  0  0  0
    1.9975  -10.1845    0.0000 C   0  0  0  0  0  0  0  0  0  0  0  0
    2.1543  -11.6763    0.0000 O   0  0  0  0  0  0  0  0  0  0  0  0
    0.9408  -12.5580    0.0000 C   0  0  0  0  0  0  0  0  0  0  0  0
    1.0975  -14.0498    0.0000 C   0  0  0  0  0  0  0  0  0  0  0  0
   -0.1160  -14.9315    0.0000 C   0  0  0  0  0  0  0  0  0  0  0  0
    0.0408  -16.4232    0.0000 C   0  0  0  0  0  0  0  0  0  0  0  0
    1.4111  -17.0333    0.0000 C   0  0  0  0  0  0  0  0  0  0  0  0
    1.5679  -18.5251    0.0000 C   0  0  0  0  0  0  0  0  0  0  0  0
    0.3544  -19.4068    0.0000 C   0  0  0  0  0  0  0  0  0  0  0  0
    0.5112  -20.8986    0.0000 C   0  0  0  0  0  0  0  0  0  0  0  0
    1.8815  -21.5087    0.0000 O   0  0  0  0  0  0  0  0  0  0  0  0
   -0.7023  -21.7803    0.0000 N   0  0  0  0  0  0  0  0  0  0  0  0
   -0.5455  -23.2721    0.0000 O   0  0  0  0  0  0  0  0  0  0  0  0
    2.6247  -16.1517    0.0000 C   0  0  0  0  0  0  0  0  0  0  0  0
    2.4679  -14.6599    0.0000 C   0  0  0  0  0  0  0  0  0  0  0  0
  1  2  1  0
  2  3  2  0
  3  4  1  0
  4  5  1  0
  5  6  2  0
  6  7  1  0
  7  8  1  0
  8  9  1  0
  9 10  2  0
 10 11  1  0
 11 12  1  0
 12 13  2  0
 12 14  1  0
 10 15  1  0
 15 16  1  0
 16 17  1  0
 17 18  1  0
 17 19  1  0
  4 20  2  0
 20 21  1  0
 21 22  1  0
 21 23  2  0
 23 24  1  0
 24 25  1  0
 25 26  1  0
 26 27  2  0
 27 28  1  0
 28 29  2  0
 29 30  1  0
 30 31  2  3
 31 32  1  0
 32 33  2  0
 32 34  1  0
 34 35  1  0
 29 36  1  0
 36 37  2  0
 23  2  1  0
 37 26  1  0
 14  5  1  0
 11  7  2  0
 19  9  1  0
M  END
>  <molecule_chembl_id>  (911) 
CHEMBL4548155

>  <canonical_smiles>  (911) 
Cc1cc(-c2nc3sc4c(c3c(=O)[nH]2)CCN(C)C4)cc(C)c1OCc1ccc(C=CC(=O)NO)cc1

>  <pchembl_value_mean>  (911) 
7.01

>  <document_chembl_id>  (911) 
CHEMBL4342471

$$$$

     RDKit          2D

 20 21  0  0  0  0  0  0  0  0999 V2000
    3.7500    1.2990    0.0000 O   0  0  0  0  0  0  0  0  0  0  0  0
    3.0000    0.0000    0.0000 C   0  0  0  0  0  0  0  0  0  0  0  0
    3.7500   -1.2990    0.0000 N   0  0  0  0  0  0  0  0  0  0  0  0
    5.2500   -1.2990    0.0000 O   0  0  0  0  0  0  0  0  0  0  0  0
    1.5000    0.0000    0.0000 C   0  0  0  0  0  0  0  0  0  0  0  0
    0.7500   -1.2990    0.0000 C   0  0  0  0  0  0  0  0  0  0  0  0
   -0.7500   -1.2990    0.0000 N   0  0  0  0  0  0  0  0  0  0  0  0
   -1.5000    0.0000    0.0000 C   0  0  0  0  0  0  0  0  0  0  0  0
   -3.0000    0.0000    0.0000 N   0  0  0  0  0  0  0  0  0  0  0  0
   -3.7500    1.2990    0.0000 C   0  0  0  0  0  0  0  0  0  0  0  0
   -5.2500    1.2990    0.0000 C   0  0  0  0  0  0  0  0  0  0  0  0
   -6.0000    2.5981    0.0000 C   0  0  0  0  0  0  0  0  0  0  0  0
   -5.2500    3.8971    0.0000 C   0  0  0  0  0  0  0  0  0  0  0  0
   -6.0000    5.1962    0.0000 C   0  0  0  0  0  0  0  0  0  0  0  0
   -7.5000    5.1962    0.0000 C   0  0  0  0  0  0  0  0  0  0  0  0
   -8.2500    3.8971    0.0000 C   0  0  0  0  0  0  0  0  0  0  0  0
   -9.7500    3.8971    0.0000 Cl  0  0  0  0  0  0  0  0  0  0  0  0
   -7.5000    2.5981    0.0000 C   0  0  0  0  0  0  0  0  0  0  0  0
   -0.7500    1.2990    0.0000 N   0  0  0  0  0  0  0  0  0  0  0  0
    0.7500    1.2990    0.0000 C   0  0  0  0  0  0  0  0  0  0  0  0
  1  2  2  0
  2  3  1  0
  3  4  1  0
  2  5  1  0
  5  6  2  0
  6  7  1  0
  7  8  2  0
  8  9  1  0
  9 10  1  0
 10 11  1  0
 11 12  1  0
 12 13  2  0
 13 14  1  0
 14 15  2  0
 15 16  1  0
 16 17  1  0
 16 18  2  0
  8 19  1  0
 19 20  2  0
 20  5  1  0
 18 12  1  0
M  END
>  <molecule_chembl_id>  (912) 
CHEMBL3655925

>  <canonical_smiles>  (912) 
O=C(NO)c1cnc(NCCc2cccc(Cl)c2)nc1

>  <pchembl_value_mean>  (912) 
7.01

>  <document_chembl_id>  (912) 
CHEMBL3639071

$$$$

     RDKit          2D

 32 35  0  0  0  0  0  0  0  0999 V2000
  -12.7500   -6.4952    0.0000 O   0  0  0  0  0  0  0  0  0  0  0  0
  -12.0000   -7.7942    0.0000 C   0  0  0  0  0  0  0  0  0  0  0  0
  -10.5000   -7.7942    0.0000 C   0  0  0  0  0  0  0  0  0  0  0  0
   -9.7500   -6.4952    0.0000 C   0  0  0  0  0  0  0  0  0  0  0  0
   -8.2500   -6.4952    0.0000 C   0  0  0  0  0  0  0  0  0  0  0  0
   -7.5000   -5.1962    0.0000 C   0  0  0  0  0  0  0  0  0  0  0  0
   -6.0000   -5.1962    0.0000 C   0  0  0  0  0  0  0  0  0  0  0  0
   -5.2500   -3.8971    0.0000 C   0  0  0  0  0  0  0  0  0  0  0  0
   -3.7500   -3.8971    0.0000 C   0  0  0  0  0  0  0  0  0  0  0  0
   -3.0000   -2.5981    0.0000 N   0  0  0  0  0  0  0  0  0  0  0  0
   -1.5000   -2.5981    0.0000 C   0  0  0  0  0  0  0  0  0  0  0  0
   -0.7500   -3.8971    0.0000 N   0  0  0  0  0  0  0  0  0  0  0  0
    0.7500   -3.8971    0.0000 N   0  0  0  0  0  0  0  0  0  0  0  0
    1.5000   -5.1962    0.0000 C   0  0  0  0  0  0  0  0  0  0  0  0
    0.7500   -6.4952    0.0000 O   0  0  0  0  0  0  0  0  0  0  0  0
    3.0000   -5.1962    0.0000 C   0  0  0  0  0  0  0  0  0  0  0  0
    3.7500   -6.4952    0.0000 C   0  0  0  0  0  0  0  0  0  0  0  0
    5.2500   -6.4952    0.0000 C   0  0  0  0  0  0  0  0  0  0  0  0
    6.0000   -7.7942    0.0000 F   0  0  0  0  0  0  0  0  0  0  0  0
    6.0000   -5.1962    0.0000 C   0  0  0  0  0  0  0  0  0  0  0  0
    5.2500   -3.8971    0.0000 C   0  0  0  0  0  0  0  0  0  0  0  0
    3.7500   -3.8971    0.0000 C   0  0  0  0  0  0  0  0  0  0  0  0
    3.0000   -2.5981    0.0000 N   0  0  0  0  0  0  0  0  0  0  0  0
    1.5000   -2.5981    0.0000 C   0  0  0  0  0  0  0  0  0  0  0  0
    0.7500   -1.2990    0.0000 C   0  0  0  0  0  0  0  0  0  0  0  0
    1.5000    0.0000    0.0000 C   0  0  0  0  0  0  0  0  0  0  0  0
    0.7500    1.2990    0.0000 C   0  0  0  0  0  0  0  0  0  0  0  0
   -0.7500    1.2990    0.0000 C   0  0  0  0  0  0  0  0  0  0  0  0
   -1.5000    0.0000    0.0000 C   0  0  0  0  0  0  0  0  0  0  0  0
   -0.7500   -1.2990    0.0000 C   0  0  0  0  0  0  0  0  0  0  0  0
  -12.7500   -9.0933    0.0000 N   0  0  0  0  0  0  0  0  0  0  0  0
  -14.2500   -9.0933    0.0000 O   0  0  0  0  0  0  0  0  0  0  0  0
  1  2  2  0
  2  3  1  0
  3  4  1  0
  4  5  1  0
  5  6  1  0
  6  7  1  0
  7  8  1  0
  8  9  1  0
  9 10  1  0
 10 11  1  0
 11 12  2  0
 12 13  1  0
 13 14  1  0
 14 15  2  0
 14 16  1  0
 16 17  2  0
 17 18  1  0
 18 19  1  0
 18 20  2  0
 20 21  1  0
 21 22  2  0
 22 23  1  0
 23 24  2  0
 24 25  1  0
 25 26  2  0
 26 27  1  0
 27 28  2  0
 28 29  1  0
 29 30  2  0
  2 31  1  0
 31 32  1  0
 30 11  1  0
 24 13  1  0
 30 25  1  0
 22 16  1  0
M  END
>  <molecule_chembl_id>  (913) 
CHEMBL5072785

>  <canonical_smiles>  (913) 
O=C(CCCCCCCNc1nn2c(=O)c3cc(F)ccc3nc2c2ccccc12)NO

>  <pchembl_value_mean>  (913) 
7.02

>  <document_chembl_id>  (913) 
CHEMBL5042505

$$$$

     RDKit          2D

 25 26  0  0  0  0  0  0  0  0999 V2000
    8.2500   -3.8971    0.0000 C   0  0  0  0  0  0  0  0  0  0  0  0
    7.5000   -2.5981    0.0000 C   0  0  0  0  0  0  0  0  0  0  0  0
    6.0000   -2.5981    0.0000 C   0  0  0  0  0  0  0  0  0  0  0  0
    5.2500   -1.2990    0.0000 N   0  0  0  0  0  0  0  0  0  0  0  0
    3.7500   -1.2990    0.0000 N   0  0  0  0  0  0  0  0  0  0  0  0
    3.0000    0.0000    0.0000 C   0  0  0  0  0  0  0  0  0  0  0  0
    3.7500    1.2990    0.0000 O   0  0  0  0  0  0  0  0  0  0  0  0
    1.5000    0.0000    0.0000 C   0  0  0  0  0  0  0  0  0  0  0  0
    0.7500   -1.2990    0.0000 C   0  0  0  0  0  0  0  0  0  0  0  0
   -0.7500   -1.2990    0.0000 C   0  0  0  0  0  0  0  0  0  0  0  0
   -1.5000    0.0000    0.0000 C   0  0  0  0  0  0  0  0  0  0  0  0
   -3.0000    0.0000    0.0000 C   0  0  0  0  0  0  0  0  0  0  0  0
   -3.7500    1.2990    0.0000 N   0  0  0  0  0  0  0  0  0  0  0  0
   -5.2500    1.2990    0.0000 C   0  0  0  0  0  0  0  0  0  0  0  0
   -6.0000    0.0000    0.0000 O   0  0  0  0  0  0  0  0  0  0  0  0
   -6.0000    2.5981    0.0000 C   0  0  0  0  0  0  0  0  0  0  0  0
   -7.5000    2.5981    0.0000 C   0  0  0  0  0  0  0  0  0  0  0  0
   -8.2500    3.8971    0.0000 C   0  0  0  0  0  0  0  0  0  0  0  0
   -7.5000    5.1962    0.0000 C   0  0  0  0  0  0  0  0  0  0  0  0
   -8.2500    6.4952    0.0000 C   0  0  0  0  0  0  0  0  0  0  0  0
   -9.7500    6.4952    0.0000 C   0  0  0  0  0  0  0  0  0  0  0  0
  -10.5000    5.1962    0.0000 C   0  0  0  0  0  0  0  0  0  0  0  0
   -9.7500    3.8971    0.0000 C   0  0  0  0  0  0  0  0  0  0  0  0
   -0.7500    1.2990    0.0000 C   0  0  0  0  0  0  0  0  0  0  0  0
    0.7500    1.2990    0.0000 C   0  0  0  0  0  0  0  0  0  0  0  0
  1  2  1  0
  2  3  1  0
  3  4  1  0
  4  5  1  0
  5  6  1  0
  6  7  2  0
  6  8  1  0
  8  9  2  0
  9 10  1  0
 10 11  2  0
 11 12  1  0
 12 13  1  0
 13 14  1  0
 14 15  2  0
 14 16  1  0
 16 17  2  3
 17 18  1  0
 18 19  2  0
 19 20  1  0
 20 21  2  0
 21 22  1  0
 22 23  2  0
 11 24  1  0
 24 25  2  0
 25  8  1  0
 23 18  1  0
M  END
>  <molecule_chembl_id>  (914) 
CHEMBL4526892

>  <canonical_smiles>  (914) 
CCCNNC(=O)c1ccc(CNC(=O)C=Cc2ccccc2)cc1

>  <pchembl_value_mean>  (914) 
7.02

>  <document_chembl_id>  (914) 
CHEMBL4680089

$$$$

     RDKit          2D

 46 50  0  0  0  0  0  0  0  0999 V2000
   -7.5000   -5.1962    0.0000 C   0  0  0  0  0  0  0  0  0  0  0  0
   -6.0000   -5.1962    0.0000 C   0  0  0  0  0  0  0  0  0  0  0  0
   -5.2500   -3.8971    0.0000 C   0  0  0  0  0  0  0  0  0  0  0  0
   -6.0000   -2.5981    0.0000 O   0  0  0  0  0  0  0  0  0  0  0  0
   -3.7500   -3.8971    0.0000 N   0  0  0  0  0  0  0  0  0  0  0  0
   -3.0000   -2.5981    0.0000 C   0  0  0  0  0  0  0  0  0  0  0  0
   -1.5000   -2.5981    0.0000 C   0  0  0  0  0  0  0  0  0  0  0  0
   -0.7500   -1.2990    0.0000 C   0  0  0  0  0  0  0  0  0  0  0  0
    0.7500   -1.2990    0.0000 C   0  0  0  0  0  0  0  0  0  0  0  0
    1.5000   -2.5981    0.0000 N   0  0  0  0  0  0  0  0  0  0  0  0
    3.0000   -2.5981    0.0000 C   0  0  0  0  0  0  0  0  0  0  0  0
    3.7500   -3.8971    0.0000 C   0  0  0  0  0  0  0  0  0  0  0  0
    5.2500   -3.8971    0.0000 C   0  0  0  0  0  0  0  0  0  0  0  0
    6.0000   -2.5981    0.0000 C   0  0  0  0  0  0  0  0  0  0  0  0
    7.5000   -2.5981    0.0000 O   0  0  0  0  0  0  0  0  0  0  0  0
    8.2500   -3.8971    0.0000 C   0  0  0  0  0  0  0  0  0  0  0  0
    9.7500   -3.8971    0.0000 C   0  0  0  0  0  0  0  0  0  0  0  0
   10.5000   -5.1962    0.0000 C   0  0  0  0  0  0  0  0  0  0  0  0
   12.0000   -5.1962    0.0000 C   0  0  0  0  0  0  0  0  0  0  0  0
   12.7500   -3.8971    0.0000 C   0  0  0  0  0  0  0  0  0  0  0  0
   12.0000   -2.5981    0.0000 C   0  0  0  0  0  0  0  0  0  0  0  0
   12.7500   -1.2990    0.0000 F   0  0  0  0  0  0  0  0  0  0  0  0
   10.5000   -2.5981    0.0000 C   0  0  0  0  0  0  0  0  0  0  0  0
    5.2500   -1.2990    0.0000 C   0  0  0  0  0  0  0  0  0  0  0  0
    6.0000   -0.0000    0.0000 Cl  0  0  0  0  0  0  0  0  0  0  0  0
    3.7500   -1.2990    0.0000 C   0  0  0  0  0  0  0  0  0  0  0  0
    1.5000    0.0000    0.0000 N   0  0  0  0  0  0  0  0  0  0  0  0
    0.7500    1.2990    0.0000 C   0  0  0  0  0  0  0  0  0  0  0  0
   -0.7500    1.2990    0.0000 N   0  0  0  0  0  0  0  0  0  0  0  0
   -1.5000    0.0000    0.0000 C   0  0  0  0  0  0  0  0  0  0  0  0
   -3.0000    0.0000    0.0000 C   0  0  0  0  0  0  0  0  0  0  0  0
   -3.7500   -1.2990    0.0000 C   0  0  0  0  0  0  0  0  0  0  0  0
   -5.2500   -1.2990    0.0000 O   0  0  0  0  0  0  0  0  0  0  0  0
   -6.0000    0.0000    0.0000 C   0  0  0  0  0  0  0  0  0  0  0  0
   -7.5000    0.0000    0.0000 C   0  0  0  0  0  0  0  0  0  0  0  0
   -8.3817   -1.2135    0.0000 C   0  0  0  0  0  0  0  0  0  0  0  0
   -9.8083   -0.7500    0.0000 N   0  0  0  0  0  0  0  0  0  0  0  0
  -11.0218   -1.6317    0.0000 C   0  0  0  0  0  0  0  0  0  0  0  0
  -12.3921   -1.0216    0.0000 C   0  0  0  0  0  0  0  0  0  0  0  0
  -13.6056   -1.9033    0.0000 C   0  0  0  0  0  0  0  0  0  0  0  0
  -14.9760   -1.2931    0.0000 C   0  0  0  0  0  0  0  0  0  0  0  0
  -15.1327    0.1986    0.0000 O   0  0  0  0  0  0  0  0  0  0  0  0
  -16.1895   -2.1748    0.0000 N   0  0  0  0  0  0  0  0  0  0  0  0
  -17.5598   -1.5647    0.0000 O   0  0  0  0  0  0  0  0  0  0  0  0
   -9.8083    0.7500    0.0000 N   0  0  0  0  0  0  0  0  0  0  0  0
   -8.3817    1.2135    0.0000 N   0  0  0  0  0  0  0  0  0  0  0  0
  1  2  2  0
  2  3  1  0
  3  4  2  0
  3  5  1  0
  5  6  1  0
  6  7  2  0
  7  8  1  0
  8  9  2  0
  9 10  1  0
 10 11  1  0
 11 12  2  0
 12 13  1  0
 13 14  2  0
 14 15  1  0
 15 16  1  0
 16 17  1  0
 17 18  2  0
 18 19  1  0
 19 20  2  0
 20 21  1  0
 21 22  1  0
 21 23  2  0
 14 24  1  0
 24 25  1  0
 24 26  2  0
  9 27  1  0
 27 28  2  0
 28 29  1  0
 29 30  2  0
 30 31  1  0
 31 32  2  0
 32 33  1  0
 33 34  1  0
 34 35  1  0
 35 36  2  0
 36 37  1  0
 37 38  1  0
 38 39  1  0
 39 40  1  0
 40 41  1  0
 41 42  2  0
 41 43  1  0
 43 44  1  0
 37 45  1  0
 45 46  2  0
 32  6  1  0
 46 35  1  0
 30  8  1  0
 26 11  1  0
 23 17  1  0
M  END
>  <molecule_chembl_id>  (915) 
CHEMBL4794670

>  <canonical_smiles>  (915) 
C=CC(=O)Nc1cc2c(Nc3ccc(OCc4cccc(F)c4)c(Cl)c3)ncnc2cc1OCc1cn(CCCC(=O)NO)nn1

>  <pchembl_value_mean>  (915) 
7.02

>  <document_chembl_id>  (915) 
CHEMBL4732162

$$$$

     RDKit          2D

 22 24  0  0  0  0  0  0  0  0999 V2000
    3.7500    1.2990    0.0000 O   0  0  0  0  0  0  0  0  0  0  0  0
    3.0000    0.0000    0.0000 C   0  0  0  0  0  0  0  0  0  0  0  0
    3.7500   -1.2990    0.0000 N   0  0  0  0  0  0  0  0  0  0  0  0
    5.2500   -1.2990    0.0000 O   0  0  0  0  0  0  0  0  0  0  0  0
    1.5000    0.0000    0.0000 C   0  0  0  0  0  0  0  0  0  0  0  0
    0.7500   -1.2990    0.0000 C   0  0  0  0  0  0  0  0  0  0  0  0
   -0.7500   -1.2990    0.0000 N   0  0  0  0  0  0  0  0  0  0  0  0
   -1.5000    0.0000    0.0000 C   0  0  0  0  0  0  0  0  0  0  0  0
   -3.0000    0.0000    0.0000 N   0  0  0  0  0  0  0  0  0  0  0  0
   -3.7500    1.2990    0.0000 C   0  0  0  0  0  0  0  0  0  0  0  0
   -5.1595    0.7860    0.0000 C   0  0  0  0  0  0  0  0  0  0  0  0
   -5.4200   -0.6912    0.0000 C   0  0  0  0  0  0  0  0  0  0  0  0
   -6.8296   -1.2042    0.0000 C   0  0  0  0  0  0  0  0  0  0  0  0
   -7.0900   -2.6814    0.0000 F   0  0  0  0  0  0  0  0  0  0  0  0
   -7.9786   -0.2401    0.0000 C   0  0  0  0  0  0  0  0  0  0  0  0
   -7.7181    1.2372    0.0000 C   0  0  0  0  0  0  0  0  0  0  0  0
   -8.8672    2.2013    0.0000 F   0  0  0  0  0  0  0  0  0  0  0  0
   -6.3086    1.7502    0.0000 C   0  0  0  0  0  0  0  0  0  0  0  0
   -4.0105    2.7762    0.0000 C   0  0  0  0  0  0  0  0  0  0  0  0
   -2.6009    2.2632    0.0000 C   0  0  0  0  0  0  0  0  0  0  0  0
   -0.7500    1.2990    0.0000 N   0  0  0  0  0  0  0  0  0  0  0  0
    0.7500    1.2990    0.0000 C   0  0  0  0  0  0  0  0  0  0  0  0
  1  2  2  0
  2  3  1  0
  3  4  1  0
  2  5  1  0
  5  6  2  0
  6  7  1  0
  7  8  2  0
  8  9  1  0
  9 10  1  0
 10 11  1  0
 11 12  2  0
 12 13  1  0
 13 14  1  0
 13 15  2  0
 15 16  1  0
 16 17  1  0
 16 18  2  0
 10 19  1  0
 19 20  1  0
  8 21  1  0
 21 22  2  0
 22  5  1  0
 20 10  1  0
 18 11  1  0
M  END
>  <molecule_chembl_id>  (916) 
CHEMBL3656001

>  <canonical_smiles>  (916) 
O=C(NO)c1cnc(NC2(c3cc(F)cc(F)c3)CC2)nc1

>  <pchembl_value_mean>  (916) 
7.02

>  <document_chembl_id>  (916) 
CHEMBL3639071

$$$$

     RDKit          2D

 29 32  0  0  0  0  0  0  0  0999 V2000
    3.0000    0.0000    0.0000 N   0  0  0  0  0  0  0  0  0  0  0  0
    1.5000    0.0000    0.0000 C   0  0  0  0  0  0  0  0  0  0  0  0
    0.7500   -1.2990    0.0000 C   0  0  0  0  0  0  0  0  0  0  0  0
   -0.7500   -1.2990    0.0000 C   0  0  0  0  0  0  0  0  0  0  0  0
   -1.5000    0.0000    0.0000 C   0  0  0  0  0  0  0  0  0  0  0  0
   -0.7500    1.2990    0.0000 C   0  0  0  0  0  0  0  0  0  0  0  0
    0.7500    1.2990    0.0000 C   0  0  0  0  0  0  0  0  0  0  0  0
    1.5000    2.5981    0.0000 N   0  0  0  0  0  0  0  0  0  0  0  0
    0.7500    3.8971    0.0000 C   0  0  0  0  0  0  0  0  0  0  0  0
   -0.7500    3.8971    0.0000 O   0  0  0  0  0  0  0  0  0  0  0  0
    1.5000    5.1962    0.0000 C   0  0  0  0  0  0  0  0  0  0  0  0
    3.0000    5.1962    0.0000 C   0  0  0  0  0  0  0  0  0  0  0  0
    3.7500    6.4952    0.0000 C   0  0  0  0  0  0  0  0  0  0  0  0
    3.0000    7.7942    0.0000 C   0  0  0  0  0  0  0  0  0  0  0  0
    3.7500    9.0933    0.0000 C   0  0  0  0  0  0  0  0  0  0  0  0
    5.2500    9.0933    0.0000 N   0  0  0  0  0  0  0  0  0  0  0  0
    6.0000   10.3923    0.0000 C   0  0  0  0  0  0  0  0  0  0  0  0
    5.3899   11.7626    0.0000 N   0  0  0  0  0  0  0  0  0  0  0  0
    6.5046   12.7663    0.0000 C   0  0  0  0  0  0  0  0  0  0  0  0
    7.8037   12.0163    0.0000 C   0  0  0  0  0  0  0  0  0  0  0  0
    9.1740   12.6264    0.0000 C   0  0  0  0  0  0  0  0  0  0  0  0
   10.3875   11.7447    0.0000 C   0  0  0  0  0  0  0  0  0  0  0  0
   11.7578   12.3549    0.0000 C   0  0  0  0  0  0  0  0  0  0  0  0
   11.9146   13.8466    0.0000 C   0  0  0  0  0  0  0  0  0  0  0  0
   10.7011   14.7283    0.0000 C   0  0  0  0  0  0  0  0  0  0  0  0
    9.3308   14.1182    0.0000 C   0  0  0  0  0  0  0  0  0  0  0  0
    7.4918   10.5491    0.0000 S   0  0  0  0  0  0  0  0  0  0  0  0
    1.5000    7.7942    0.0000 C   0  0  0  0  0  0  0  0  0  0  0  0
    0.7500    6.4952    0.0000 C   0  0  0  0  0  0  0  0  0  0  0  0
  1  2  1  0
  2  3  2  0
  3  4  1  0
  4  5  2  0
  5  6  1  0
  6  7  2  0
  7  8  1  0
  8  9  1  0
  9 10  2  0
  9 11  1  0
 11 12  2  0
 12 13  1  0
 13 14  2  0
 14 15  1  0
 15 16  1  0
 16 17  1  0
 17 18  2  0
 18 19  1  0
 19 20  1  0
 20 21  1  0
 21 22  2  0
 22 23  1  0
 23 24  2  0
 24 25  1  0
 25 26  2  0
 20 27  1  0
 14 28  1  0
 28 29  2  0
  7  2  1  0
 29 11  1  0
 27 17  1  0
 26 21  1  0
M  END
>  <molecule_chembl_id>  (917) 
CHEMBL2407723

>  <canonical_smiles>  (917) 
Nc1ccccc1NC(=O)c1ccc(CNC2=NCC(c3ccccc3)S2)cc1

>  <pchembl_value_mean>  (917) 
7.025

>  <document_chembl_id>  (917) 
CHEMBL2407081

$$$$

     RDKit          2D

 26 27  0  0  0  0  0  0  0  0999 V2000
   -2.6491   -1.6339    0.0000 C   0  0  0  0  0  0  0  0  0  0  0  0
   -1.5000   -2.5981    0.0000 C   0  0  0  0  0  0  0  0  0  0  0  0
   -2.6491   -3.5623    0.0000 C   0  0  0  0  0  0  0  0  0  0  0  0
   -0.7500   -3.8971    0.0000 C   0  0  0  0  0  0  0  0  0  0  0  0
    0.7500   -3.8971    0.0000 C   0  0  0  0  0  0  0  0  0  0  0  0
    1.5000   -5.1962    0.0000 O   0  0  0  0  0  0  0  0  0  0  0  0
    1.5000   -2.5981    0.0000 N   0  0  0  0  0  0  0  0  0  0  0  0
    0.7500   -1.2990    0.0000 C   0  0  0  0  0  0  0  0  0  0  0  0
    1.5000    0.0000    0.0000 C   0  0  0  0  0  0  0  0  0  0  0  0
    0.7500    1.2990    0.0000 C   0  0  0  0  0  0  0  0  0  0  0  0
   -0.7500    1.2990    0.0000 C   0  0  0  0  0  0  0  0  0  0  0  0
   -1.5000    2.5981    0.0000 C   0  0  0  0  0  0  0  0  0  0  0  0
   -3.0000    2.5981    0.0000 O   0  0  0  0  0  0  0  0  0  0  0  0
   -0.7500    3.8971    0.0000 N   0  0  0  0  0  0  0  0  0  0  0  0
   -1.5000    5.1962    0.0000 C   0  0  0  0  0  0  0  0  0  0  0  0
   -0.7500    6.4952    0.0000 C   0  0  0  0  0  0  0  0  0  0  0  0
   -1.5000    7.7942    0.0000 C   0  0  0  0  0  0  0  0  0  0  0  0
   -0.7500    9.0933    0.0000 C   0  0  0  0  0  0  0  0  0  0  0  0
   -1.5000   10.3923    0.0000 C   0  0  0  0  0  0  0  0  0  0  0  0
   -0.7500   11.6913    0.0000 C   0  0  0  0  0  0  0  0  0  0  0  0
   -1.5000   12.9904    0.0000 C   0  0  0  0  0  0  0  0  0  0  0  0
   -3.0000   12.9904    0.0000 O   0  0  0  0  0  0  0  0  0  0  0  0
   -0.7500   14.2894    0.0000 N   0  0  0  0  0  0  0  0  0  0  0  0
   -1.5000   15.5885    0.0000 O   0  0  0  0  0  0  0  0  0  0  0  0
   -1.5000    0.0000    0.0000 C   0  0  0  0  0  0  0  0  0  0  0  0
   -0.7500   -1.2990    0.0000 C   0  0  0  0  0  0  0  0  0  0  0  0
  1  2  1  0
  2  3  1  0
  2  4  1  0
  4  5  1  0
  5  6  2  0
  5  7  1  0
  7  8  1  0
  8  9  2  0
  9 10  1  0
 10 11  2  0
 11 12  1  0
 12 13  2  0
 12 14  1  0
 14 15  1  0
 15 16  1  0
 16 17  1  0
 17 18  1  0
 18 19  1  0
 19 20  1  0
 20 21  1  0
 21 22  2  0
 21 23  1  0
 23 24  1  0
 11 25  1  0
 25 26  2  0
 26  2  1  0
 26  8  1  0
M  END
>  <molecule_chembl_id>  (918) 
CHEMBL3311473

>  <canonical_smiles>  (918) 
CC1(C)CC(=O)Nc2ccc(C(=O)NCCCCCCC(=O)NO)cc21

>  <pchembl_value_mean>  (918) 
7.03

>  <document_chembl_id>  (918) 
CHEMBL3351757

$$$$

     RDKit          2D

 29 30  0  0  0  0  0  0  0  0999 V2000
    3.0000    0.0000    0.0000 C   0  0  0  0  0  0  0  0  0  0  0  0
    1.5000    0.0000    0.0000 C   0  0  0  0  0  0  0  0  0  0  0  0
    0.7500   -1.2990    0.0000 C   0  0  0  0  0  0  0  0  0  0  0  0
   -0.7500   -1.2990    0.0000 C   0  0  0  0  0  0  0  0  0  0  0  0
   -1.5000    0.0000    0.0000 C   0  0  0  0  0  0  0  0  0  0  0  0
   -3.0000    0.0000    0.0000 N   0  0  0  0  0  0  0  0  0  0  0  0
   -3.7500    1.2990    0.0000 C   0  0  0  0  0  0  0  0  0  0  0  0
   -3.0000    2.5981    0.0000 O   0  0  0  0  0  0  0  0  0  0  0  0
   -5.2500    1.2990    0.0000 C   0  0  0  0  0  0  0  0  0  0  0  0
   -6.0000    2.5981    0.0000 C   0  0  0  0  0  0  0  0  0  0  0  0
   -7.5000    2.5981    0.0000 C   0  0  0  0  0  0  0  0  0  0  0  0
   -8.2500    3.8971    0.0000 C   0  0  0  0  0  0  0  0  0  0  0  0
   -9.7500    3.8971    0.0000 C   0  0  0  0  0  0  0  0  0  0  0  0
  -10.5000    5.1962    0.0000 C   0  0  0  0  0  0  0  0  0  0  0  0
  -12.0000    5.1962    0.0000 C   0  0  0  0  0  0  0  0  0  0  0  0
  -12.7500    3.8971    0.0000 O   0  0  0  0  0  0  0  0  0  0  0  0
  -12.7500    6.4952    0.0000 N   0  0  0  0  0  0  0  0  0  0  0  0
  -14.2500    6.4952    0.0000 O   0  0  0  0  0  0  0  0  0  0  0  0
   -6.0000    0.0000    0.0000 N   0  0  0  0  0  0  0  0  0  0  0  0
   -7.5000    0.0000    0.0000 C   0  0  0  0  0  0  0  0  0  0  0  0
   -8.2500    1.2990    0.0000 O   0  0  0  0  0  0  0  0  0  0  0  0
   -8.2500   -1.2990    0.0000 C   0  0  0  0  0  0  0  0  0  0  0  0
   -7.6399   -2.6694    0.0000 C   0  0  0  0  0  0  0  0  0  0  0  0
   -8.7546   -3.6731    0.0000 C   0  0  0  0  0  0  0  0  0  0  0  0
  -10.0537   -2.9231    0.0000 C   0  0  0  0  0  0  0  0  0  0  0  0
  -11.4240   -3.5332    0.0000 O   0  0  0  0  0  0  0  0  0  0  0  0
   -9.7418   -1.4558    0.0000 N   0  0  0  0  0  0  0  0  0  0  0  0
   -0.7500    1.2990    0.0000 C   0  0  0  0  0  0  0  0  0  0  0  0
    0.7500    1.2990    0.0000 C   0  0  0  0  0  0  0  0  0  0  0  0
  1  2  1  0
  2  3  2  0
  3  4  1  0
  4  5  2  0
  5  6  1  0
  6  7  1  0
  7  8  2  0
  7  9  1  0
  9 10  1  0
 10 11  1  0
 11 12  1  0
 12 13  1  0
 13 14  1  0
 14 15  1  0
 15 16  2  0
 15 17  1  0
 17 18  1  0
  9 19  1  0
 19 20  1  0
 20 21  2  0
 20 22  1  0
 22 23  1  0
 23 24  1  0
 24 25  1  0
 25 26  2  0
 25 27  1  0
  5 28  1  0
 28 29  2  0
 29  2  1  0
 27 22  1  0
M  END
>  <molecule_chembl_id>  (919) 
CHEMBL3098606

>  <canonical_smiles>  (919) 
Cc1ccc(NC(=O)C(CCCCCC(=O)NO)NC(=O)C2CCC(=O)N2)cc1

>  <pchembl_value_mean>  (919) 
7.03

>  <document_chembl_id>  (919) 
CHEMBL3098008

$$$$

     RDKit          2D

 30 33  0  0  0  0  0  0  0  0999 V2000
    3.0000    0.0000    0.0000 N   0  0  0  0  0  0  0  0  0  0  0  0
    1.5000    0.0000    0.0000 C   0  0  0  0  0  0  0  0  0  0  0  0
    0.7500   -1.2990    0.0000 C   0  0  0  0  0  0  0  0  0  0  0  0
   -0.7500   -1.2990    0.0000 C   0  0  0  0  0  0  0  0  0  0  0  0
   -1.5000    0.0000    0.0000 C   0  0  0  0  0  0  0  0  0  0  0  0
   -0.7500    1.2990    0.0000 C   0  0  0  0  0  0  0  0  0  0  0  0
    0.7500    1.2990    0.0000 C   0  0  0  0  0  0  0  0  0  0  0  0
    1.5000    2.5981    0.0000 N   0  0  0  0  0  0  0  0  0  0  0  0
    0.7500    3.8971    0.0000 C   0  0  0  0  0  0  0  0  0  0  0  0
   -0.7500    3.8971    0.0000 O   0  0  0  0  0  0  0  0  0  0  0  0
    1.5000    5.1962    0.0000 C   0  0  0  0  0  0  0  0  0  0  0  0
    3.0000    5.1962    0.0000 C   0  0  0  0  0  0  0  0  0  0  0  0
    3.7500    6.4952    0.0000 C   0  0  0  0  0  0  0  0  0  0  0  0
    3.0000    7.7942    0.0000 C   0  0  0  0  0  0  0  0  0  0  0  0
    3.7500    9.0933    0.0000 C   0  0  0  0  0  0  0  0  0  0  0  0
    5.2500    9.0933    0.0000 N   0  0  0  0  0  0  0  0  0  0  0  0
    6.0000   10.3923    0.0000 C   0  0  0  0  0  0  0  0  0  0  0  0
    5.3899   11.7626    0.0000 N   0  0  0  0  0  0  0  0  0  0  0  0
    6.5046   12.7663    0.0000 C   0  0  0  0  0  0  0  0  0  0  0  0
    6.3478   14.2581    0.0000 C   0  0  0  0  0  0  0  0  0  0  0  0
    7.5613   15.1398    0.0000 C   0  0  0  0  0  0  0  0  0  0  0  0
    8.9317   14.5297    0.0000 C   0  0  0  0  0  0  0  0  0  0  0  0
   10.1452   15.4114    0.0000 C   0  0  0  0  0  0  0  0  0  0  0  0
    9.9884   16.9031    0.0000 C   0  0  0  0  0  0  0  0  0  0  0  0
    8.6181   17.5132    0.0000 C   0  0  0  0  0  0  0  0  0  0  0  0
    7.4046   16.6316    0.0000 C   0  0  0  0  0  0  0  0  0  0  0  0
    7.8037   12.0163    0.0000 C   0  0  0  0  0  0  0  0  0  0  0  0
    7.4918   10.5491    0.0000 S   0  0  0  0  0  0  0  0  0  0  0  0
    1.5000    7.7942    0.0000 C   0  0  0  0  0  0  0  0  0  0  0  0
    0.7500    6.4952    0.0000 C   0  0  0  0  0  0  0  0  0  0  0  0
  1  2  1  0
  2  3  2  0
  3  4  1  0
  4  5  2  0
  5  6  1  0
  6  7  2  0
  7  8  1  0
  8  9  1  0
  9 10  2  0
  9 11  1  0
 11 12  2  0
 12 13  1  0
 13 14  2  0
 14 15  1  0
 15 16  1  0
 16 17  1  0
 17 18  2  0
 18 19  1  0
 19 20  1  0
 20 21  1  0
 21 22  2  0
 22 23  1  0
 23 24  2  0
 24 25  1  0
 25 26  2  0
 19 27  1  0
 27 28  1  0
 14 29  1  0
 29 30  2  0
  7  2  1  0
 30 11  1  0
 28 17  1  0
 26 21  1  0
M  END
>  <molecule_chembl_id>  (920) 
CHEMBL2407721

>  <canonical_smiles>  (920) 
Nc1ccccc1NC(=O)c1ccc(CNC2=NC(Cc3ccccc3)CS2)cc1

>  <pchembl_value_mean>  (920) 
7.035

>  <document_chembl_id>  (920) 
CHEMBL2407081

$$$$

     RDKit          2D

 33 35  0  0  0  0  0  0  0  0999 V2000
   -4.2606  -14.8714    0.0000 C   0  0  0  0  0  0  0  0  0  0  0  0
   -4.1038  -13.3796    0.0000 C   0  0  0  0  0  0  0  0  0  0  0  0
   -2.7335  -12.7695    0.0000 C   0  0  0  0  0  0  0  0  0  0  0  0
   -1.5200  -13.6512    0.0000 O   0  0  0  0  0  0  0  0  0  0  0  0
   -2.5767  -11.2778    0.0000 C   0  0  0  0  0  0  0  0  0  0  0  0
   -1.2064  -10.6676    0.0000 C   0  0  0  0  0  0  0  0  0  0  0  0
   -1.0496   -9.1759    0.0000 C   0  0  0  0  0  0  0  0  0  0  0  0
    0.3207   -8.5658    0.0000 C   0  0  0  0  0  0  0  0  0  0  0  0
    0.4775   -7.0740    0.0000 C   0  0  0  0  0  0  0  0  0  0  0  0
    1.8478   -6.4639    0.0000 C   0  0  0  0  0  0  0  0  0  0  0  0
    3.0613   -7.3456    0.0000 N   0  0  0  0  0  0  0  0  0  0  0  0
    2.9046   -8.8373    0.0000 C   0  0  0  0  0  0  0  0  0  0  0  0
    1.5342   -9.4474    0.0000 O   0  0  0  0  0  0  0  0  0  0  0  0
    4.1181   -9.7190    0.0000 C   0  0  0  0  0  0  0  0  0  0  0  0
    5.5447   -9.2555    0.0000 C   0  0  0  0  0  0  0  0  0  0  0  0
    6.4263  -10.4690    0.0000 N   0  0  0  0  0  0  0  0  0  0  0  0
    5.5447  -11.6825    0.0000 C   0  0  0  0  0  0  0  0  0  0  0  0
    4.1181  -11.2190    0.0000 S   0  0  0  0  0  0  0  0  0  0  0  0
    2.0046   -4.9721    0.0000 C   0  0  0  0  0  0  0  0  0  0  0  0
    0.8899   -3.9684    0.0000 N   0  0  0  0  0  0  0  0  0  0  0  0
    1.5000   -2.5981    0.0000 C   0  0  0  0  0  0  0  0  0  0  0  0
    0.7500   -1.2990    0.0000 C   0  0  0  0  0  0  0  0  0  0  0  0
    1.5000    0.0000    0.0000 C   0  0  0  0  0  0  0  0  0  0  0  0
    0.7500    1.2990    0.0000 C   0  0  0  0  0  0  0  0  0  0  0  0
   -0.7500    1.2990    0.0000 C   0  0  0  0  0  0  0  0  0  0  0  0
   -1.5000    0.0000    0.0000 C   0  0  0  0  0  0  0  0  0  0  0  0
   -0.7500   -1.2990    0.0000 C   0  0  0  0  0  0  0  0  0  0  0  0
    2.9918   -2.7549    0.0000 N   0  0  0  0  0  0  0  0  0  0  0  0
    3.3037   -4.2221    0.0000 C   0  0  0  0  0  0  0  0  0  0  0  0
    4.6740   -4.8322    0.0000 C   0  0  0  0  0  0  0  0  0  0  0  0
    4.8308   -6.3240    0.0000 O   0  0  0  0  0  0  0  0  0  0  0  0
    5.8875   -3.9505    0.0000 N   0  0  0  0  0  0  0  0  0  0  0  0
    7.2578   -4.5606    0.0000 C   0  0  0  0  0  0  0  0  0  0  0  0
  1  2  1  0
  2  3  1  0
  3  4  2  0
  3  5  1  0
  5  6  1  0
  6  7  1  0
  7  8  1  0
  8  9  1  0
  9 10  1  0
 10 11  1  0
 11 12  1  0
 12 13  2  0
 12 14  1  0
 14 15  2  0
 15 16  1  0
 16 17  2  0
 17 18  1  0
 10 19  1  0
 19 20  1  0
 20 21  1  0
 21 22  1  0
 22 23  2  0
 23 24  1  0
 24 25  2  0
 25 26  1  0
 26 27  2  0
 21 28  2  0
 28 29  1  0
 29 30  1  0
 30 31  2  0
 30 32  1  0
 32 33  1  0
 18 14  1  0
 29 19  2  0
 27 22  1  0
M  END
>  <molecule_chembl_id>  (921) 
CHEMBL4782188

>  <canonical_smiles>  (921) 
CCC(=O)CCCCCC(NC(=O)c1cncs1)c1[nH]c(-c2ccccc2)nc1C(=O)NC

>  <pchembl_value_mean>  (921) 
7.04

>  <document_chembl_id>  (921) 
CHEMBL4665726

$$$$

     RDKit          2D

 27 29  0  0  0  0  0  0  0  0999 V2000
    9.0933  -16.3573    0.0000 O   0  0  0  0  0  0  0  0  0  0  0  0
    7.7942  -17.1073    0.0000 C   0  0  0  0  0  0  0  0  0  0  0  0
    6.4952  -16.3573    0.0000 C   0  0  0  0  0  0  0  0  0  0  0  0
    6.4952  -14.8573    0.0000 C   0  0  0  0  0  0  0  0  0  0  0  0
    5.1962  -14.1073    0.0000 C   0  0  0  0  0  0  0  0  0  0  0  0
    5.1962  -12.6073    0.0000 C   0  0  0  0  0  0  0  0  0  0  0  0
    3.8971  -11.8573    0.0000 C   0  0  0  0  0  0  0  0  0  0  0  0
    3.8971  -10.3573    0.0000 C   0  0  0  0  0  0  0  0  0  0  0  0
    2.5981   -9.6073    0.0000 C   0  0  0  0  0  0  0  0  0  0  0  0
    2.5981   -8.1073    0.0000 O   0  0  0  0  0  0  0  0  0  0  0  0
    1.2990   -7.3573    0.0000 C   0  0  0  0  0  0  0  0  0  0  0  0
   -0.0000   -8.1073    0.0000 C   0  0  0  0  0  0  0  0  0  0  0  0
   -1.2990   -7.3573    0.0000 C   0  0  0  0  0  0  0  0  0  0  0  0
   -1.2990   -5.8573    0.0000 C   0  0  0  0  0  0  0  0  0  0  0  0
   -0.0000   -5.1073    0.0000 C   0  0  0  0  0  0  0  0  0  0  0  0
   -0.0000   -3.6073    0.0000 C   0  0  0  0  0  0  0  0  0  0  0  0
    1.2135   -2.7256    0.0000 N   0  0  0  0  0  0  0  0  0  0  0  0
    0.7500   -1.2990    0.0000 C   0  0  0  0  0  0  0  0  0  0  0  0
    1.5000    0.0000    0.0000 C   0  0  0  0  0  0  0  0  0  0  0  0
    0.7500    1.2990    0.0000 C   0  0  0  0  0  0  0  0  0  0  0  0
   -0.7500    1.2990    0.0000 C   0  0  0  0  0  0  0  0  0  0  0  0
   -1.5000    0.0000    0.0000 C   0  0  0  0  0  0  0  0  0  0  0  0
   -0.7500   -1.2990    0.0000 C   0  0  0  0  0  0  0  0  0  0  0  0
   -1.2135   -2.7256    0.0000 N   0  0  0  0  0  0  0  0  0  0  0  0
    1.2990   -5.8573    0.0000 C   0  0  0  0  0  0  0  0  0  0  0  0
    7.7942  -18.6073    0.0000 N   0  0  0  0  0  0  0  0  0  0  0  0
    9.0933  -19.3573    0.0000 O   0  0  0  0  0  0  0  0  0  0  0  0
  1  2  2  0
  2  3  1  0
  3  4  1  0
  4  5  1  0
  5  6  1  0
  6  7  1  0
  7  8  1  0
  8  9  1  0
  9 10  1  0
 10 11  1  0
 11 12  2  0
 12 13  1  0
 13 14  2  0
 14 15  1  0
 15 16  1  0
 16 17  2  0
 17 18  1  0
 18 19  2  0
 19 20  1  0
 20 21  2  0
 21 22  1  0
 22 23  2  0
 23 24  1  0
 15 25  2  0
  2 26  1  0
 26 27  1  0
 25 11  1  0
 24 16  1  0
 23 18  1  0
M  END
>  <molecule_chembl_id>  (922) 
CHEMBL5077171

>  <canonical_smiles>  (922) 
O=C(CCCCCCCOc1cccc(-c2nc3ccccc3[nH]2)c1)NO

>  <pchembl_value_mean>  (922) 
7.04

>  <document_chembl_id>  (922) 
CHEMBL5038666

$$$$

     RDKit          2D

 32 35  0  0  0  0  0  0  0  0999 V2000
    3.7500   -1.2990    0.0000 C   0  0  0  0  0  0  0  0  0  0  0  0
    3.0000    0.0000    0.0000 O   0  0  0  0  0  0  0  0  0  0  0  0
    1.5000    0.0000    0.0000 C   0  0  0  0  0  0  0  0  0  0  0  0
    0.7500   -1.2990    0.0000 C   0  0  0  0  0  0  0  0  0  0  0  0
   -0.7500   -1.2990    0.0000 C   0  0  0  0  0  0  0  0  0  0  0  0
   -1.5000   -2.5981    0.0000 N   0  0  0  0  0  0  0  0  0  0  0  0
   -3.0000   -2.5981    0.0000 C   0  0  0  0  0  0  0  0  0  0  0  0
   -3.7500   -3.8971    0.0000 C   0  0  0  0  0  0  0  0  0  0  0  0
   -3.1399   -5.2674    0.0000 C   0  0  0  0  0  0  0  0  0  0  0  0
   -4.2546   -6.2711    0.0000 C   0  0  0  0  0  0  0  0  0  0  0  0
   -5.5537   -5.5211    0.0000 C   0  0  0  0  0  0  0  0  0  0  0  0
   -6.9240   -6.1312    0.0000 C   0  0  0  0  0  0  0  0  0  0  0  0
   -5.2418   -4.0539    0.0000 O   0  0  0  0  0  0  0  0  0  0  0  0
   -3.7500   -1.2990    0.0000 C   0  0  0  0  0  0  0  0  0  0  0  0
   -3.0000    0.0000    0.0000 C   0  0  0  0  0  0  0  0  0  0  0  0
   -3.7500    1.2990    0.0000 N   0  0  0  0  0  0  0  0  0  0  0  0
   -5.2500    1.2990    0.0000 C   0  0  0  0  0  0  0  0  0  0  0  0
   -6.0000    2.5981    0.0000 C   0  0  0  0  0  0  0  0  0  0  0  0
   -5.2500    3.8971    0.0000 C   0  0  0  0  0  0  0  0  0  0  0  0
   -6.0000    5.1962    0.0000 C   0  0  0  0  0  0  0  0  0  0  0  0
   -7.5000    5.1962    0.0000 C   0  0  0  0  0  0  0  0  0  0  0  0
   -8.2500    6.4952    0.0000 C   0  0  0  0  0  0  0  0  0  0  0  0
   -9.7500    6.4952    0.0000 O   0  0  0  0  0  0  0  0  0  0  0  0
   -7.5000    7.7942    0.0000 N   0  0  0  0  0  0  0  0  0  0  0  0
   -8.2500    9.0933    0.0000 O   0  0  0  0  0  0  0  0  0  0  0  0
   -8.2500    3.8971    0.0000 C   0  0  0  0  0  0  0  0  0  0  0  0
   -7.5000    2.5981    0.0000 C   0  0  0  0  0  0  0  0  0  0  0  0
   -1.5000    0.0000    0.0000 C   0  0  0  0  0  0  0  0  0  0  0  0
   -0.7500    1.2990    0.0000 C   0  0  0  0  0  0  0  0  0  0  0  0
    0.7500    1.2990    0.0000 C   0  0  0  0  0  0  0  0  0  0  0  0
    1.5000    2.5981    0.0000 O   0  0  0  0  0  0  0  0  0  0  0  0
    3.0000    2.5981    0.0000 C   0  0  0  0  0  0  0  0  0  0  0  0
  1  2  1  0
  2  3  1  0
  3  4  2  0
  4  5  1  0
  5  6  2  0
  6  7  1  0
  7  8  1  0
  8  9  2  0
  9 10  1  0
 10 11  2  0
 11 12  1  0
 11 13  1  0
  7 14  2  0
 14 15  1  0
 15 16  1  0
 16 17  1  0
 17 18  1  0
 18 19  2  0
 19 20  1  0
 20 21  2  0
 21 22  1  0
 22 23  2  0
 22 24  1  0
 24 25  1  0
 21 26  1  0
 26 27  2  0
 15 28  2  0
 28 29  1  0
 29 30  2  0
 30 31  1  0
 31 32  1  0
 30  3  1  0
 28  5  1  0
 13  8  1  0
 27 18  1  0
M  END
>  <molecule_chembl_id>  (923) 
CHEMBL4863394

>  <canonical_smiles>  (923) 
COc1cc2nc(-c3ccc(C)o3)cc(NCc3ccc(C(=O)NO)cc3)c2cc1OC

>  <pchembl_value_mean>  (923) 
7.04

>  <document_chembl_id>  (923) 
CHEMBL4834403

$$$$

     RDKit          2D

 35 37  0  0  0  0  0  0  0  0999 V2000
    1.5922    6.6948    0.0000 C   0  0  0  0  0  0  0  0  0  0  0  0
    0.1004    6.8516    0.0000 C   0  0  0  0  0  0  0  0  0  0  0  0
   -0.5097    8.2219    0.0000 C   0  0  0  0  0  0  0  0  0  0  0  0
   -0.7813    5.6380    0.0000 C   0  0  0  0  0  0  0  0  0  0  0  0
    0.2369    4.5365    0.0000 N   0  0  0  0  0  0  0  0  0  0  0  0
    0.7561    3.1293    0.0000 C   0  0  0  0  0  0  0  0  0  0  0  0
    2.2376    3.3639    0.0000 O   0  0  0  0  0  0  0  0  0  0  0  0
    0.3943    1.2135    0.0000 C   0  0  0  0  0  0  0  0  0  0  0  0
    0.4790    2.4256    0.0000 C   0  0  0  0  0  0  0  0  0  0  0  0
    1.2760    0.0000    0.0000 C   0  0  0  0  0  0  0  0  0  0  0  0
    0.3943   -1.2135    0.0000 S   0  0  0  0  0  0  0  0  0  0  0  0
   -1.0323   -0.7500    0.0000 C   0  0  0  0  0  0  0  0  0  0  0  0
   -1.0323    0.7500    0.0000 N   0  0  0  0  0  0  0  0  0  0  0  0
   -2.4396   -1.2692    0.0000 C   0  0  0  0  0  0  0  0  0  0  0  0
   -3.2233   -2.5481    0.0000 C   0  0  0  0  0  0  0  0  0  0  0  0
   -4.6819   -2.1980    0.0000 S   0  0  0  0  0  0  0  0  0  0  0  0
   -5.3006   -0.5823    0.0000 C   0  0  0  0  0  0  0  0  0  0  0  0
   -3.9384   -1.2103    0.0000 N   0  0  0  0  0  0  0  0  0  0  0  0
   -6.3188    0.5192    0.0000 C   0  0  0  0  0  0  0  0  0  0  0  0
   -6.8380    1.9265    0.0000 N   0  0  0  0  0  0  0  0  0  0  0  0
   -6.7791    3.4253    0.0000 C   0  0  0  0  0  0  0  0  0  0  0  0
   -8.2377    3.7755    0.0000 O   0  0  0  0  0  0  0  0  0  0  0  0
   -6.1511    4.7875    0.0000 C   0  0  0  0  0  0  0  0  0  0  0  0
   -5.0496    5.8057    0.0000 C   0  0  0  0  0  0  0  0  0  0  0  0
   -5.8334    7.0847    0.0000 C   0  0  0  0  0  0  0  0  0  0  0  0
   -5.1177    8.4029    0.0000 C   0  0  0  0  0  0  0  0  0  0  0  0
   -5.9014    9.6819    0.0000 C   0  0  0  0  0  0  0  0  0  0  0  0
   -5.1857   11.0001    0.0000 C   0  0  0  0  0  0  0  0  0  0  0  0
   -5.9694   12.2791    0.0000 S   0  0  0  0  0  0  0  0  0  0  0  0
   -5.2537   13.5973    0.0000 C   0  0  0  0  0  0  0  0  0  0  0  0
   -6.0374   14.8763    0.0000 C   0  0  0  0  0  0  0  0  0  0  0  0
   -5.3217   16.1945    0.0000 S   0  0  0  0  0  0  0  0  0  0  0  0
   -3.6424    6.3249    0.0000 O   0  0  0  0  0  0  0  0  0  0  0  0
   -2.1435    6.2660    0.0000 C   0  0  0  0  0  0  0  0  0  0  0  0
   -1.7933    7.7246    0.0000 O   0  0  0  0  0  0  0  0  0  0  0  0
  1  2  1  0
  2  3  1  0
  2  4  1  0
  4  5  1  0
  5  6  1  0
  6  7  2  0
  6  8  1  0
  8  9  1  0
  8 10  1  0
 10 11  1  0
 11 12  1  0
 12 13  2  0
 12 14  1  0
 14 15  2  0
 15 16  1  0
 16 17  1  0
 17 18  2  0
 17 19  1  0
 19 20  1  0
 20 21  1  0
 21 22  2  0
 21 23  1  0
 23 24  1  0
 24 25  1  0
 25 26  2  3
 26 27  1  0
 27 28  1  0
 28 29  1  0
 29 30  1  0
 30 31  1  0
 31 32  1  0
 24 33  1  0
 33 34  1  0
 34 35  2  0
 34  4  1  0
 13  8  1  0
 18 14  1  0
M  END
>  <molecule_chembl_id>  (924) 
CHEMBL4078721

>  <canonical_smiles>  (924) 
CC(C)C1NC(=O)C2(C)CSC(=N2)c2csc(n2)CNC(=O)CC(C=CCCSCCS)OC1=O

>  <pchembl_value_mean>  (924) 
7.05

>  <document_chembl_id>  (924) 
CHEMBL4020727

$$$$

     RDKit          2D

 39 43  0  0  0  0  0  0  0  0999 V2000
    6.0000   -0.0000    0.0000 C   0  0  0  0  0  0  0  0  0  0  0  0
    5.2500   -1.2990    0.0000 C   0  0  0  0  0  0  0  0  0  0  0  0
    3.7500   -1.2990    0.0000 O   0  0  0  0  0  0  0  0  0  0  0  0
    3.0000   -2.5981    0.0000 C   0  0  0  0  0  0  0  0  0  0  0  0
    3.7500   -3.8971    0.0000 C   0  0  0  0  0  0  0  0  0  0  0  0
    3.0000   -5.1962    0.0000 C   0  0  0  0  0  0  0  0  0  0  0  0
    1.5000   -5.1962    0.0000 C   0  0  0  0  0  0  0  0  0  0  0  0
    0.7500   -6.4952    0.0000 C   0  0  0  0  0  0  0  0  0  0  0  0
   -0.7500   -6.4952    0.0000 N   0  0  0  0  0  0  0  0  0  0  0  0
   -1.5000   -5.1962    0.0000 C   0  0  0  0  0  0  0  0  0  0  0  0
   -3.0000   -5.1962    0.0000 C   0  0  0  0  0  0  0  0  0  0  0  0
   -3.7500   -6.4952    0.0000 N   0  0  0  0  0  0  0  0  0  0  0  0
   -5.2500   -6.4952    0.0000 C   0  0  0  0  0  0  0  0  0  0  0  0
   -6.0000   -5.1962    0.0000 N   0  0  0  0  0  0  0  0  0  0  0  0
   -7.5000   -5.1962    0.0000 C   0  0  0  0  0  0  0  0  0  0  0  0
   -8.2500   -6.4952    0.0000 C   0  0  0  0  0  0  0  0  0  0  0  0
   -9.7500   -6.4952    0.0000 C   0  0  0  0  0  0  0  0  0  0  0  0
  -10.5000   -7.7942    0.0000 O   0  0  0  0  0  0  0  0  0  0  0  0
  -10.5000   -5.1962    0.0000 N   0  0  0  0  0  0  0  0  0  0  0  0
  -12.0000   -5.1962    0.0000 O   0  0  0  0  0  0  0  0  0  0  0  0
   -7.5000   -7.7942    0.0000 C   0  0  0  0  0  0  0  0  0  0  0  0
   -6.0000   -7.7942    0.0000 N   0  0  0  0  0  0  0  0  0  0  0  0
   -3.0000   -7.7942    0.0000 C   0  0  0  0  0  0  0  0  0  0  0  0
   -1.5000   -7.7942    0.0000 C   0  0  0  0  0  0  0  0  0  0  0  0
    0.7500   -3.8971    0.0000 C   0  0  0  0  0  0  0  0  0  0  0  0
    1.5000   -2.5981    0.0000 C   0  0  0  0  0  0  0  0  0  0  0  0
    0.7500   -1.2990    0.0000 C   0  0  0  0  0  0  0  0  0  0  0  0
    1.5000    0.0000    0.0000 N   0  0  0  0  0  0  0  0  0  0  0  0
    0.7500    1.2990    0.0000 C   0  0  0  0  0  0  0  0  0  0  0  0
    1.2135    2.7256    0.0000 C   0  0  0  0  0  0  0  0  0  0  0  0
    2.6401    3.1891    0.0000 C   0  0  0  0  0  0  0  0  0  0  0  0
    2.9520    4.6564    0.0000 C   0  0  0  0  0  0  0  0  0  0  0  0
    0.0000    3.6073    0.0000 N   0  0  0  0  0  0  0  0  0  0  0  0
   -1.2135    2.7256    0.0000 N   0  0  0  0  0  0  0  0  0  0  0  0
   -2.6401    3.1891    0.0000 C   0  0  0  0  0  0  0  0  0  0  0  0
   -0.7500    1.2990    0.0000 C   0  0  0  0  0  0  0  0  0  0  0  0
   -1.5000    0.0000    0.0000 C   0  0  0  0  0  0  0  0  0  0  0  0
   -3.0000    0.0000    0.0000 O   0  0  0  0  0  0  0  0  0  0  0  0
   -0.7500   -1.2990    0.0000 N   0  0  0  0  0  0  0  0  0  0  0  0
  1  2  1  0
  2  3  1  0
  3  4  1  0
  4  5  2  0
  5  6  1  0
  6  7  2  0
  7  8  1  0
  8  9  1  0
  9 10  1  0
 10 11  1  0
 11 12  1  0
 12 13  1  0
 13 14  2  0
 14 15  1  0
 15 16  2  0
 16 17  1  0
 17 18  2  0
 17 19  1  0
 19 20  1  0
 16 21  1  0
 21 22  2  0
 12 23  1  0
 23 24  1  0
  7 25  1  0
 25 26  2  0
 26 27  1  0
 27 28  2  0
 28 29  1  0
 29 30  1  0
 30 31  1  0
 31 32  1  0
 30 33  2  0
 33 34  1  0
 34 35  1  0
 34 36  1  0
 36 37  1  0
 37 38  2  0
 37 39  1  0
 26  4  1  0
 39 27  1  0
 24  9  1  0
 36 29  2  0
 22 13  1  0
M  END
>  <molecule_chembl_id>  (925) 
CHEMBL3923840

>  <canonical_smiles>  (925) 
CCOc1ccc(CN2CCN(c3ncc(C(=O)NO)cn3)CC2)cc1-c1nc2c(CC)nn(C)c2c(=O)[nH]1

>  <pchembl_value_mean>  (925) 
7.05

>  <document_chembl_id>  (925) 
CHEMBL3860059

$$$$

     RDKit          2D

 22 23  0  0  0  0  0  0  0  0999 V2000
   -0.5773   -4.2803    0.0000 C   0  0  0  0  0  0  0  0  0  0  0  0
    0.8899   -3.9684    0.0000 N   0  0  0  0  0  0  0  0  0  0  0  0
    2.0046   -4.9721    0.0000 C   0  0  0  0  0  0  0  0  0  0  0  0
    1.8478   -6.4639    0.0000 S   0  0  0  0  0  0  0  0  0  0  0  0
    3.0613   -7.3456    0.0000 C   0  0  0  0  0  0  0  0  0  0  0  0
    2.9046   -8.8373    0.0000 C   0  0  0  0  0  0  0  0  0  0  0  0
    4.1181   -9.7190    0.0000 C   0  0  0  0  0  0  0  0  0  0  0  0
    3.9613  -11.2108    0.0000 C   0  0  0  0  0  0  0  0  0  0  0  0
    5.1748  -12.0925    0.0000 C   0  0  0  0  0  0  0  0  0  0  0  0
    5.0180  -13.5843    0.0000 C   0  0  0  0  0  0  0  0  0  0  0  0
    3.6477  -14.1944    0.0000 O   0  0  0  0  0  0  0  0  0  0  0  0
    6.2315  -14.4659    0.0000 N   0  0  0  0  0  0  0  0  0  0  0  0
    6.0748  -15.9577    0.0000 O   0  0  0  0  0  0  0  0  0  0  0  0
    3.3037   -4.2221    0.0000 N   0  0  0  0  0  0  0  0  0  0  0  0
    2.9918   -2.7549    0.0000 N   0  0  0  0  0  0  0  0  0  0  0  0
    1.5000   -2.5981    0.0000 C   0  0  0  0  0  0  0  0  0  0  0  0
    0.7500   -1.2990    0.0000 C   0  0  0  0  0  0  0  0  0  0  0  0
    1.5000    0.0000    0.0000 C   0  0  0  0  0  0  0  0  0  0  0  0
    0.7500    1.2990    0.0000 C   0  0  0  0  0  0  0  0  0  0  0  0
   -0.7500    1.2990    0.0000 N   0  0  0  0  0  0  0  0  0  0  0  0
   -1.5000    0.0000    0.0000 C   0  0  0  0  0  0  0  0  0  0  0  0
   -0.7500   -1.2990    0.0000 C   0  0  0  0  0  0  0  0  0  0  0  0
  1  2  1  0
  2  3  1  0
  3  4  1  0
  4  5  1  0
  5  6  1  0
  6  7  1  0
  7  8  1  0
  8  9  1  0
  9 10  1  0
 10 11  2  0
 10 12  1  0
 12 13  1  0
  3 14  2  0
 14 15  1  0
 15 16  2  0
 16 17  1  0
 17 18  2  0
 18 19  1  0
 19 20  2  0
 20 21  1  0
 21 22  2  0
 16  2  1  0
 22 17  1  0
M  END
>  <molecule_chembl_id>  (926) 
CHEMBL4857970

>  <canonical_smiles>  (926) 
Cn1c(SCCCCCC(=O)NO)nnc1-c1ccncc1

>  <pchembl_value_mean>  (926) 
7.05

>  <document_chembl_id>  (926) 
CHEMBL4823270

$$$$

     RDKit          2D

 38 41  0  0  0  0  0  0  0  0999 V2000
  -10.8414  -16.7810    0.0000 C   0  0  0  0  0  0  0  0  0  0  0  0
  -10.5295  -15.3138    0.0000 C   0  0  0  0  0  0  0  0  0  0  0  0
   -9.1029  -14.8503    0.0000 N   0  0  0  0  0  0  0  0  0  0  0  0
   -8.7911  -13.3831    0.0000 N   0  0  0  0  0  0  0  0  0  0  0  0
   -7.3645  -12.9195    0.0000 C   0  0  0  0  0  0  0  0  0  0  0  0
   -6.2498  -13.9232    0.0000 O   0  0  0  0  0  0  0  0  0  0  0  0
   -7.0526  -11.4523    0.0000 C   0  0  0  0  0  0  0  0  0  0  0  0
   -8.1673  -10.4486    0.0000 C   0  0  0  0  0  0  0  0  0  0  0  0
   -7.8555   -8.9814    0.0000 C   0  0  0  0  0  0  0  0  0  0  0  0
   -6.4289   -8.5179    0.0000 C   0  0  0  0  0  0  0  0  0  0  0  0
   -6.1170   -7.0506    0.0000 C   0  0  0  0  0  0  0  0  0  0  0  0
   -4.6904   -6.5871    0.0000 N   0  0  0  0  0  0  0  0  0  0  0  0
   -4.3786   -5.1199    0.0000 C   0  0  0  0  0  0  0  0  0  0  0  0
   -5.4933   -4.1162    0.0000 O   0  0  0  0  0  0  0  0  0  0  0  0
   -2.9520   -4.6564    0.0000 C   0  0  0  0  0  0  0  0  0  0  0  0
   -2.6401   -3.1891    0.0000 C   0  0  0  0  0  0  0  0  0  0  0  0
   -1.2135   -2.7256    0.0000 C   0  0  0  0  0  0  0  0  0  0  0  0
   -0.0000   -3.6073    0.0000 C   0  0  0  0  0  0  0  0  0  0  0  0
    1.2135   -2.7256    0.0000 N   0  0  0  0  0  0  0  0  0  0  0  0
    0.7500   -1.2990    0.0000 C   0  0  0  0  0  0  0  0  0  0  0  0
    1.5000    0.0000    0.0000 C   0  0  0  0  0  0  0  0  0  0  0  0
    0.7500    1.2990    0.0000 C   0  0  0  0  0  0  0  0  0  0  0  0
   -0.7500    1.2990    0.0000 C   0  0  0  0  0  0  0  0  0  0  0  0
   -1.5000    0.0000    0.0000 C   0  0  0  0  0  0  0  0  0  0  0  0
   -0.7500   -1.2990    0.0000 C   0  0  0  0  0  0  0  0  0  0  0  0
   -1.8373   -5.6601    0.0000 N   0  0  0  0  0  0  0  0  0  0  0  0
   -2.1491   -7.1273    0.0000 C   0  0  0  0  0  0  0  0  0  0  0  0
   -3.5757   -7.5908    0.0000 O   0  0  0  0  0  0  0  0  0  0  0  0
   -1.0344   -8.1310    0.0000 C   0  0  0  0  0  0  0  0  0  0  0  0
   -1.3463   -9.5982    0.0000 C   0  0  0  0  0  0  0  0  0  0  0  0
   -0.2316  -10.6019    0.0000 C   0  0  0  0  0  0  0  0  0  0  0  0
    1.1950  -10.1384    0.0000 C   0  0  0  0  0  0  0  0  0  0  0  0
    2.3097  -11.1421    0.0000 O   0  0  0  0  0  0  0  0  0  0  0  0
    1.9979  -12.6093    0.0000 C   0  0  0  0  0  0  0  0  0  0  0  0
    1.5069   -8.6712    0.0000 C   0  0  0  0  0  0  0  0  0  0  0  0
    0.3922   -7.6675    0.0000 C   0  0  0  0  0  0  0  0  0  0  0  0
   -5.3142   -9.5216    0.0000 C   0  0  0  0  0  0  0  0  0  0  0  0
   -5.6260  -10.9888    0.0000 C   0  0  0  0  0  0  0  0  0  0  0  0
  1  2  1  0
  2  3  1  0
  3  4  1  0
  4  5  1  0
  5  6  2  0
  5  7  1  0
  7  8  2  0
  8  9  1  0
  9 10  2  0
 10 11  1  0
 11 12  1  0
 12 13  1  0
 13 14  2  0
 13 15  1  0
 15 16  1  0
 16 17  1  0
 17 18  2  0
 18 19  1  0
 19 20  1  0
 20 21  2  0
 21 22  1  0
 22 23  2  0
 23 24  1  0
 24 25  2  0
 15 26  1  0
 26 27  1  0
 27 28  2  0
 27 29  1  0
 29 30  2  0
 30 31  1  0
 31 32  2  0
 32 33  1  0
 33 34  1  0
 32 35  1  0
 35 36  2  0
 10 37  1  0
 37 38  2  0
 38  7  1  0
 25 17  1  0
 36 29  1  0
 25 20  1  0
M  END
>  <molecule_chembl_id>  (927) 
CHEMBL4104334

>  <canonical_smiles>  (927) 
CCNNC(=O)c1ccc(CNC(=O)C(Cc2c[nH]c3ccccc23)NC(=O)c2ccc(OC)cc2)cc1

>  <pchembl_value_mean>  (927) 
7.05

>  <document_chembl_id>  (927) 
CHEMBL4020839

$$$$

     RDKit          2D

 25 26  0  0  0  0  0  0  0  0999 V2000
   -3.0000   -2.5981    0.0000 C   0  0  0  0  0  0  0  0  0  0  0  0
   -1.5000   -2.5981    0.0000 N   0  0  0  0  0  0  0  0  0  0  0  0
   -0.7500   -3.8971    0.0000 C   0  0  0  0  0  0  0  0  0  0  0  0
   -1.5000   -5.1962    0.0000 O   0  0  0  0  0  0  0  0  0  0  0  0
    0.7500   -3.8971    0.0000 C   0  0  0  0  0  0  0  0  0  0  0  0
    1.5000   -2.5981    0.0000 C   0  0  0  0  0  0  0  0  0  0  0  0
    0.7500   -1.2990    0.0000 C   0  0  0  0  0  0  0  0  0  0  0  0
    1.5000    0.0000    0.0000 C   0  0  0  0  0  0  0  0  0  0  0  0
    0.7500    1.2990    0.0000 C   0  0  0  0  0  0  0  0  0  0  0  0
    1.5000    2.5981    0.0000 C   0  0  0  0  0  0  0  0  0  0  0  0
    0.7500    3.8971    0.0000 O   0  0  0  0  0  0  0  0  0  0  0  0
    3.0000    2.5981    0.0000 N   0  0  0  0  0  0  0  0  0  0  0  0
    3.7500    3.8971    0.0000 C   0  0  0  0  0  0  0  0  0  0  0  0
    5.2500    3.8971    0.0000 C   0  0  0  0  0  0  0  0  0  0  0  0
    6.0000    5.1962    0.0000 C   0  0  0  0  0  0  0  0  0  0  0  0
    7.5000    5.1962    0.0000 C   0  0  0  0  0  0  0  0  0  0  0  0
    8.2500    6.4952    0.0000 C   0  0  0  0  0  0  0  0  0  0  0  0
    9.7500    6.4952    0.0000 C   0  0  0  0  0  0  0  0  0  0  0  0
   10.5000    7.7942    0.0000 C   0  0  0  0  0  0  0  0  0  0  0  0
    9.7500    9.0933    0.0000 O   0  0  0  0  0  0  0  0  0  0  0  0
   12.0000    7.7942    0.0000 N   0  0  0  0  0  0  0  0  0  0  0  0
   12.7500    9.0933    0.0000 O   0  0  0  0  0  0  0  0  0  0  0  0
   -0.7500    1.2990    0.0000 C   0  0  0  0  0  0  0  0  0  0  0  0
   -1.5000    0.0000    0.0000 C   0  0  0  0  0  0  0  0  0  0  0  0
   -0.7500   -1.2990    0.0000 C   0  0  0  0  0  0  0  0  0  0  0  0
  1  2  1  0
  2  3  1  0
  3  4  2  0
  3  5  1  0
  5  6  2  0
  6  7  1  0
  7  8  2  0
  8  9  1  0
  9 10  1  0
 10 11  2  0
 10 12  1  0
 12 13  1  0
 13 14  1  0
 14 15  1  0
 15 16  1  0
 16 17  1  0
 17 18  1  0
 18 19  1  0
 19 20  2  0
 19 21  1  0
 21 22  1  0
  9 23  2  0
 23 24  1  0
 24 25  2  0
 25  2  1  0
 25  7  1  0
M  END
>  <molecule_chembl_id>  (928) 
CHEMBL3309284

>  <canonical_smiles>  (928) 
Cn1c(=O)ccc2cc(C(=O)NCCCCCCC(=O)NO)ccc21

>  <pchembl_value_mean>  (928) 
7.05

>  <document_chembl_id>  (928) 
CHEMBL3351757

$$$$

     RDKit          2D

 33 37  0  0  0  0  0  0  0  0999 V2000
   -2.7729  -10.0617    0.0000 O   0  0  0  0  0  0  0  0  0  0  0  0
   -3.8876   -9.0580    0.0000 C   0  0  0  0  0  0  0  0  0  0  0  0
   -5.3142   -9.5216    0.0000 N   0  0  0  0  0  0  0  0  0  0  0  0
   -5.6260  -10.9888    0.0000 O   0  0  0  0  0  0  0  0  0  0  0  0
   -3.5757   -7.5908    0.0000 C   0  0  0  0  0  0  0  0  0  0  0  0
   -4.6904   -6.5871    0.0000 C   0  0  0  0  0  0  0  0  0  0  0  0
   -4.3786   -5.1199    0.0000 C   0  0  0  0  0  0  0  0  0  0  0  0
   -2.9520   -4.6564    0.0000 C   0  0  0  0  0  0  0  0  0  0  0  0
   -2.6401   -3.1891    0.0000 C   0  0  0  0  0  0  0  0  0  0  0  0
   -1.2135   -2.7256    0.0000 N   0  0  0  0  0  0  0  0  0  0  0  0
   -0.0000   -3.6073    0.0000 C   0  0  0  0  0  0  0  0  0  0  0  0
    0.0000   -5.1073    0.0000 O   0  0  0  0  0  0  0  0  0  0  0  0
    1.2135   -2.7256    0.0000 C   0  0  0  0  0  0  0  0  0  0  0  0
    2.6401   -3.1891    0.0000 C   0  0  0  0  0  0  0  0  0  0  0  0
    3.1036   -4.6157    0.0000 N   0  0  0  0  0  0  0  0  0  0  0  0
    4.6036   -4.6157    0.0000 C   0  0  0  0  0  0  0  0  0  0  0  0
    5.6073   -5.7305    0.0000 C   0  0  0  0  0  0  0  0  0  0  0  0
    7.0746   -5.4186    0.0000 C   0  0  0  0  0  0  0  0  0  0  0  0
    7.5381   -3.9920    0.0000 C   0  0  0  0  0  0  0  0  0  0  0  0
    6.5344   -2.8773    0.0000 C   0  0  0  0  0  0  0  0  0  0  0  0
    5.0672   -3.1891    0.0000 C   0  0  0  0  0  0  0  0  0  0  0  0
    3.8536   -2.3075    0.0000 C   0  0  0  0  0  0  0  0  0  0  0  0
    3.8536   -0.8075    0.0000 N   0  0  0  0  0  0  0  0  0  0  0  0
    5.1527   -0.0575    0.0000 O   0  0  0  0  0  0  0  0  0  0  0  0
    0.7500   -1.2990    0.0000 C   0  0  0  0  0  0  0  0  0  0  0  0
    1.5000    0.0000    0.0000 C   0  0  0  0  0  0  0  0  0  0  0  0
    0.7500    1.2990    0.0000 C   0  0  0  0  0  0  0  0  0  0  0  0
   -0.7500    1.2990    0.0000 C   0  0  0  0  0  0  0  0  0  0  0  0
   -1.5000    0.0000    0.0000 C   0  0  0  0  0  0  0  0  0  0  0  0
   -3.0000    0.0000    0.0000 Cl  0  0  0  0  0  0  0  0  0  0  0  0
   -0.7500   -1.2990    0.0000 C   0  0  0  0  0  0  0  0  0  0  0  0
   -1.8373   -5.6601    0.0000 C   0  0  0  0  0  0  0  0  0  0  0  0
   -2.1491   -7.1273    0.0000 C   0  0  0  0  0  0  0  0  0  0  0  0
  1  2  2  0
  2  3  1  0
  3  4  1  0
  2  5  1  0
  5  6  2  0
  6  7  1  0
  7  8  2  0
  8  9  1  0
  9 10  1  0
 10 11  1  0
 11 12  2  0
 11 13  1  0
 13 14  2  3
 14 15  1  0
 15 16  1  0
 16 17  2  0
 17 18  1  0
 18 19  2  0
 19 20  1  0
 20 21  2  0
 21 22  1  0
 22 23  2  3
 23 24  1  0
 13 25  1  0
 25 26  2  0
 26 27  1  0
 27 28  2  0
 28 29  1  0
 29 30  1  0
 29 31  2  0
  8 32  1  0
 32 33  2  0
 33  5  1  0
 31 10  1  0
 22 14  1  0
 31 25  1  0
 21 16  1  0
M  END
>  <molecule_chembl_id>  (929) 
CHEMBL4762257

>  <canonical_smiles>  (929) 
O=C(NO)c1ccc(CN2C(=O)C(=C3Nc4ccccc4C3=NO)c3cccc(Cl)c32)cc1

>  <pchembl_value_mean>  (929) 
7.06

>  <document_chembl_id>  (929) 
CHEMBL4699494

$$$$

     RDKit          2D

 49 53  0  0  0  0  0  0  0  0999 V2000
   14.7990   -8.5442    0.0000 C   0  0  0  0  0  0  0  0  0  0  0  0
   13.2990   -8.5442    0.0000 C   0  0  0  0  0  0  0  0  0  0  0  0
   12.5490   -7.2452    0.0000 C   0  0  0  0  0  0  0  0  0  0  0  0
   13.2990   -5.9462    0.0000 O   0  0  0  0  0  0  0  0  0  0  0  0
   11.0490   -7.2452    0.0000 C   0  0  0  0  0  0  0  0  0  0  0  0
   10.2990   -5.9462    0.0000 C   0  0  0  0  0  0  0  0  0  0  0  0
    8.7990   -5.9462    0.0000 C   0  0  0  0  0  0  0  0  0  0  0  0
    8.0490   -4.6471    0.0000 C   0  0  0  0  0  0  0  0  0  0  0  0
    6.5490   -4.6471    0.0000 C   0  0  0  0  0  0  0  0  0  0  0  0
    5.7990   -3.3481    0.0000 C   0  0  0  0  0  0  0  0  0  0  0  0
    4.2990   -3.3481    0.0000 N   0  0  0  0  0  0  0  0  0  0  0  0
    3.5490   -2.0490    0.0000 C   0  0  0  0  0  0  0  0  0  0  0  0
    4.2990   -0.7500    0.0000 O   0  0  0  0  0  0  0  0  0  0  0  0
    2.0490   -2.0490    0.0000 C   0  0  0  0  0  0  0  0  0  0  0  0
    0.7500   -2.7990    0.0000 C   0  0  0  0  0  0  0  0  0  0  0  0
    0.7500   -1.2990    0.0000 C   0  0  0  0  0  0  0  0  0  0  0  0
    1.5000    0.0000    0.0000 C   0  0  0  0  0  0  0  0  0  0  0  0
    0.7500    1.2990    0.0000 C   0  0  0  0  0  0  0  0  0  0  0  0
   -0.7500    1.2990    0.0000 N   0  0  0  0  0  0  0  0  0  0  0  0
   -1.5000    2.5981    0.0000 C   0  0  0  0  0  0  0  0  0  0  0  0
   -0.7500    3.8971    0.0000 C   0  0  0  0  0  0  0  0  0  0  0  0
   -1.5000    0.0000    0.0000 C   0  0  0  0  0  0  0  0  0  0  0  0
   -0.7500   -1.2990    0.0000 C   0  0  0  0  0  0  0  0  0  0  0  0
    6.5490   -2.0490    0.0000 C   0  0  0  0  0  0  0  0  0  0  0  0
    5.9389   -0.6787    0.0000 N   0  0  0  0  0  0  0  0  0  0  0  0
    7.0537    0.3250    0.0000 C   0  0  0  0  0  0  0  0  0  0  0  0
    8.3527   -0.4250    0.0000 C   0  0  0  0  0  0  0  0  0  0  0  0
    9.7230    0.1851    0.0000 C   0  0  0  0  0  0  0  0  0  0  0  0
   10.9365   -0.6966    0.0000 C   0  0  0  0  0  0  0  0  0  0  0  0
   12.3069   -0.0865    0.0000 C   0  0  0  0  0  0  0  0  0  0  0  0
   12.4636    1.4053    0.0000 C   0  0  0  0  0  0  0  0  0  0  0  0
   13.8340    2.0154    0.0000 C   0  0  0  0  0  0  0  0  0  0  0  0
   13.9908    3.5072    0.0000 O   0  0  0  0  0  0  0  0  0  0  0  0
   15.0475    1.1337    0.0000 N   0  0  0  0  0  0  0  0  0  0  0  0
   16.4178    1.7438    0.0000 C   0  0  0  0  0  0  0  0  0  0  0  0
   17.6313    0.8621    0.0000 C   0  0  0  0  0  0  0  0  0  0  0  0
   19.0016    1.4723    0.0000 C   0  0  0  0  0  0  0  0  0  0  0  0
   20.2152    0.5906    0.0000 C   0  0  0  0  0  0  0  0  0  0  0  0
   21.4287   -0.2911    0.0000 F   0  0  0  0  0  0  0  0  0  0  0  0
   19.3335   -0.6230    0.0000 F   0  0  0  0  0  0  0  0  0  0  0  0
   21.0969    1.8041    0.0000 F   0  0  0  0  0  0  0  0  0  0  0  0
   19.1584    2.9640    0.0000 C   0  0  0  0  0  0  0  0  0  0  0  0
   17.9449    3.8457    0.0000 C   0  0  0  0  0  0  0  0  0  0  0  0
   16.5746    3.2356    0.0000 N   0  0  0  0  0  0  0  0  0  0  0  0
   11.2501    2.2870    0.0000 C   0  0  0  0  0  0  0  0  0  0  0  0
    9.8798    1.6769    0.0000 C   0  0  0  0  0  0  0  0  0  0  0  0
    8.6663    2.5585    0.0000 O   0  0  0  0  0  0  0  0  0  0  0  0
    8.8231    4.0503    0.0000 C   0  0  0  0  0  0  0  0  0  0  0  0
    8.0408   -1.8922    0.0000 N   0  0  0  0  0  0  0  0  0  0  0  0
  1  2  1  0
  2  3  1  0
  3  4  2  0
  3  5  1  0
  5  6  1  0
  6  7  1  0
  7  8  1  0
  8  9  1  0
  9 10  1  0
 10 11  1  0
 11 12  1  0
 12 13  2  0
 12 14  1  0
 14 15  1  0
 15 16  1  0
 16 17  1  0
 17 18  1  0
 18 19  1  0
 19 20  1  0
 20 21  1  0
 19 22  1  0
 22 23  1  0
 10 24  1  0
 24 25  2  0
 25 26  1  0
 26 27  2  0
 27 28  1  0
 28 29  2  0
 29 30  1  0
 30 31  2  0
 31 32  1  0
 32 33  2  0
 32 34  1  0
 34 35  1  0
 35 36  2  0
 36 37  1  0
 37 38  1  0
 38 39  1  0
 38 40  1  0
 38 41  1  0
 37 42  2  0
 42 43  1  0
 43 44  2  0
 31 45  1  0
 45 46  2  0
 46 47  1  0
 47 48  1  0
 27 49  1  0
 16 14  1  0
 49 24  1  0
 23 16  1  0
 46 28  1  0
 44 35  1  0
M  END
>  <molecule_chembl_id>  (930) 
CHEMBL4755946

>  <canonical_smiles>  (930) 
CCC(=O)CCCCCC(NC(=O)C1CC12CCN(CC)CC2)c1ncc(-c2ccc(C(=O)Nc3cc(C(F)(F)F)ccn3)cc2OC)[nH]1

>  <pchembl_value_mean>  (930) 
7.06

>  <document_chembl_id>  (930) 
CHEMBL4680369

$$$$

     RDKit          2D

 26 28  0  0  0  0  0  0  0  0999 V2000
    5.8875   -3.9505    0.0000 N   0  0  0  0  0  0  0  0  0  0  0  0
    4.6740   -4.8322    0.0000 C   0  0  0  0  0  0  0  0  0  0  0  0
    4.8308   -6.3240    0.0000 C   0  0  0  0  0  0  0  0  0  0  0  0
    6.2011   -6.9341    0.0000 C   0  0  0  0  0  0  0  0  0  0  0  0
    6.3579   -8.4259    0.0000 C   0  0  0  0  0  0  0  0  0  0  0  0
    7.7282   -9.0360    0.0000 C   0  0  0  0  0  0  0  0  0  0  0  0
    7.8850  -10.5278    0.0000 C   0  0  0  0  0  0  0  0  0  0  0  0
    9.2553  -11.1379    0.0000 C   0  0  0  0  0  0  0  0  0  0  0  0
   10.4688  -10.2562    0.0000 O   0  0  0  0  0  0  0  0  0  0  0  0
    9.4121  -12.6296    0.0000 C   0  0  0  0  0  0  0  0  0  0  0  0
   10.7111  -13.3796    0.0000 C   0  0  0  0  0  0  0  0  0  0  0  0
   10.3993  -14.8469    0.0000 C   0  0  0  0  0  0  0  0  0  0  0  0
    8.9075  -15.0037    0.0000 O   0  0  0  0  0  0  0  0  0  0  0  0
    8.2974  -13.6333    0.0000 N   0  0  0  0  0  0  0  0  0  0  0  0
    3.3037   -4.2221    0.0000 C   0  0  0  0  0  0  0  0  0  0  0  0
    2.0046   -4.9721    0.0000 C   0  0  0  0  0  0  0  0  0  0  0  0
    0.8899   -3.9684    0.0000 C   0  0  0  0  0  0  0  0  0  0  0  0
    1.5000   -2.5981    0.0000 N   0  0  0  0  0  0  0  0  0  0  0  0
    0.7500   -1.2990    0.0000 C   0  0  0  0  0  0  0  0  0  0  0  0
    1.5000    0.0000    0.0000 C   0  0  0  0  0  0  0  0  0  0  0  0
    0.7500    1.2990    0.0000 C   0  0  0  0  0  0  0  0  0  0  0  0
   -0.7500    1.2990    0.0000 C   0  0  0  0  0  0  0  0  0  0  0  0
   -1.5000    2.5981    0.0000 F   0  0  0  0  0  0  0  0  0  0  0  0
   -1.5000    0.0000    0.0000 C   0  0  0  0  0  0  0  0  0  0  0  0
   -0.7500   -1.2990    0.0000 C   0  0  0  0  0  0  0  0  0  0  0  0
    2.9918   -2.7549    0.0000 N   0  0  0  0  0  0  0  0  0  0  0  0
  1  2  1  0
  2  3  1  0
  3  4  1  0
  4  5  1  0
  5  6  1  0
  6  7  1  0
  7  8  1  0
  8  9  2  0
  8 10  1  0
 10 11  1  0
 11 12  2  0
 12 13  1  0
 13 14  1  0
  2 15  1  0
 15 16  1  0
 16 17  2  0
 17 18  1  0
 18 19  1  0
 19 20  2  0
 20 21  1  0
 21 22  2  0
 22 23  1  0
 22 24  1  0
 24 25  2  0
 18 26  1  0
 14 10  2  0
 26 15  2  0
 25 19  1  0
M  END
>  <molecule_chembl_id>  (931) 
CHEMBL4641904

>  <canonical_smiles>  (931) 
NC(CCCCCC(=O)c1ccon1)c1ccn(-c2ccc(F)cc2)n1

>  <pchembl_value_mean>  (931) 
7.07

>  <document_chembl_id>  (931) 
CHEMBL4622967

$$$$

     RDKit          2D

 40 44  0  0  0  0  0  0  0  0999 V2000
   -0.5864  -10.4561    0.0000 C   0  0  0  0  0  0  0  0  0  0  0  0
    0.6272   -9.5744    0.0000 C   0  0  0  0  0  0  0  0  0  0  0  0
    0.4704   -8.0826    0.0000 C   0  0  0  0  0  0  0  0  0  0  0  0
    1.6839   -7.2010    0.0000 C   0  0  0  0  0  0  0  0  0  0  0  0
    1.5271   -5.7092    0.0000 C   0  0  0  0  0  0  0  0  0  0  0  0
    0.1568   -5.0991    0.0000 N   0  0  0  0  0  0  0  0  0  0  0  0
   -0.0000   -3.6073    0.0000 C   0  0  0  0  0  0  0  0  0  0  0  0
   -1.2135   -2.7256    0.0000 S   0  0  0  0  0  0  0  0  0  0  0  0
   -0.7500   -1.2990    0.0000 C   0  0  0  0  0  0  0  0  0  0  0  0
    0.7500   -1.2990    0.0000 C   0  0  0  0  0  0  0  0  0  0  0  0
    1.2135   -2.7256    0.0000 C   0  0  0  0  0  0  0  0  0  0  0  0
    2.5838   -3.3357    0.0000 C   0  0  0  0  0  0  0  0  0  0  0  0
    3.7974   -2.4540    0.0000 O   0  0  0  0  0  0  0  0  0  0  0  0
    2.7406   -4.8275    0.0000 N   0  0  0  0  0  0  0  0  0  0  0  0
    1.5000    0.0000    0.0000 C   0  0  0  0  0  0  0  0  0  0  0  0
    0.7500    1.2990    0.0000 C   0  0  0  0  0  0  0  0  0  0  0  0
   -0.7500    1.2990    0.0000 N   0  0  0  0  0  0  0  0  0  0  0  0
   -1.5000    2.5981    0.0000 C   0  0  0  0  0  0  0  0  0  0  0  0
   -1.5000    0.0000    0.0000 C   0  0  0  0  0  0  0  0  0  0  0  0
    3.0542   -7.8111    0.0000 C   0  0  0  0  0  0  0  0  0  0  0  0
    3.2110   -9.3029    0.0000 C   0  0  0  0  0  0  0  0  0  0  0  0
    4.5813   -9.9130    0.0000 C   0  0  0  0  0  0  0  0  0  0  0  0
    1.9975  -10.1845    0.0000 C   0  0  0  0  0  0  0  0  0  0  0  0
    2.1543  -11.6763    0.0000 O   0  0  0  0  0  0  0  0  0  0  0  0
    0.9408  -12.5580    0.0000 C   0  0  0  0  0  0  0  0  0  0  0  0
    1.0975  -14.0498    0.0000 C   0  0  0  0  0  0  0  0  0  0  0  0
   -0.1160  -14.9315    0.0000 O   0  0  0  0  0  0  0  0  0  0  0  0
    0.0408  -16.4232    0.0000 C   0  0  0  0  0  0  0  0  0  0  0  0
   -1.1727  -17.3049    0.0000 C   0  0  0  0  0  0  0  0  0  0  0  0
   -2.5430  -16.6948    0.0000 C   0  0  0  0  0  0  0  0  0  0  0  0
   -3.7566  -17.5765    0.0000 C   0  0  0  0  0  0  0  0  0  0  0  0
   -3.5998  -19.0683    0.0000 C   0  0  0  0  0  0  0  0  0  0  0  0
   -4.8133  -19.9500    0.0000 C   0  0  0  0  0  0  0  0  0  0  0  0
   -6.1836  -19.3398    0.0000 C   0  0  0  0  0  0  0  0  0  0  0  0
   -7.3971  -20.2215    0.0000 C   0  0  0  0  0  0  0  0  0  0  0  0
   -7.2403  -21.7133    0.0000 O   0  0  0  0  0  0  0  0  0  0  0  0
   -8.7674  -19.6114    0.0000 N   0  0  0  0  0  0  0  0  0  0  0  0
   -9.9810  -20.4931    0.0000 O   0  0  0  0  0  0  0  0  0  0  0  0
   -2.2294  -19.6784    0.0000 C   0  0  0  0  0  0  0  0  0  0  0  0
   -1.0159  -18.7967    0.0000 C   0  0  0  0  0  0  0  0  0  0  0  0
  1  2  1  0
  2  3  2  0
  3  4  1  0
  4  5  1  0
  5  6  2  0
  6  7  1  0
  7  8  1  0
  8  9  1  0
  9 10  2  0
 10 11  1  0
 11 12  1  0
 12 13  2  0
 12 14  1  0
 10 15  1  0
 15 16  1  0
 16 17  1  0
 17 18  1  0
 17 19  1  0
  4 20  2  0
 20 21  1  0
 21 22  1  0
 21 23  2  0
 23 24  1  0
 24 25  1  0
 25 26  1  0
 26 27  1  0
 27 28  1  0
 28 29  1  0
 29 30  2  0
 30 31  1  0
 31 32  2  0
 32 33  1  0
 33 34  2  3
 34 35  1  0
 35 36  2  0
 35 37  1  0
 37 38  1  0
 32 39  1  0
 39 40  2  0
 23  2  1  0
 40 29  1  0
 14  5  1  0
 11  7  2  0
 19  9  1  0
M  END
>  <molecule_chembl_id>  (932) 
CHEMBL4465878

>  <canonical_smiles>  (932) 
Cc1cc(-c2nc3sc4c(c3c(=O)[nH]2)CCN(C)C4)cc(C)c1OCCOCc1ccc(C=CC(=O)NO)cc1

>  <pchembl_value_mean>  (932) 
7.07

>  <document_chembl_id>  (932) 
CHEMBL4342471

$$$$

     RDKit          2D

 37 39  0  0  0  0  0  0  0  0999 V2000
    3.7500   -1.2990    0.0000 C   0  0  0  0  0  0  0  0  0  0  0  0
    3.0000    0.0000    0.0000 N   0  0  0  0  0  0  0  0  0  0  0  0
    3.7500    1.2990    0.0000 C   0  0  0  0  0  0  0  0  0  0  0  0
    1.5000    0.0000    0.0000 C   0  0  0  0  0  0  0  0  0  0  0  0
    0.7500   -1.2990    0.0000 C   0  0  0  0  0  0  0  0  0  0  0  0
   -0.7500   -1.2990    0.0000 C   0  0  0  0  0  0  0  0  0  0  0  0
   -1.5000    0.0000    0.0000 C   0  0  0  0  0  0  0  0  0  0  0  0
   -0.7500    1.2990    0.0000 C   0  0  0  0  0  0  0  0  0  0  0  0
   -1.5000    2.5981    0.0000 C   0  0  0  0  0  0  0  0  0  0  0  0
   -3.0000    2.5981    0.0000 S   0  0  0  0  0  0  0  0  0  0  0  0
   -3.0000    4.0981    0.0000 O   0  0  0  0  0  0  0  0  0  0  0  0
   -3.0000    1.0981    0.0000 O   0  0  0  0  0  0  0  0  0  0  0  0
   -4.5000    2.5981    0.0000 N   0  0  0  0  0  0  0  0  0  0  0  0
   -5.2500    1.2990    0.0000 C   0  0  0  0  0  0  0  0  0  0  0  0
   -6.7500    1.2990    0.0000 C   0  0  0  0  0  0  0  0  0  0  0  0
   -7.5000    0.0000    0.0000 C   0  0  0  0  0  0  0  0  0  0  0  0
   -9.0000    0.0000    0.0000 C   0  0  0  0  0  0  0  0  0  0  0  0
   -9.7500   -1.2990    0.0000 C   0  0  0  0  0  0  0  0  0  0  0  0
  -11.2500   -1.2990    0.0000 C   0  0  0  0  0  0  0  0  0  0  0  0
  -12.0000    0.0000    0.0000 O   0  0  0  0  0  0  0  0  0  0  0  0
  -12.0000   -2.5981    0.0000 N   0  0  0  0  0  0  0  0  0  0  0  0
  -13.5000   -2.5981    0.0000 O   0  0  0  0  0  0  0  0  0  0  0  0
   -5.2500    3.8971    0.0000 C   0  0  0  0  0  0  0  0  0  0  0  0
   -6.7500    3.8971    0.0000 C   0  0  0  0  0  0  0  0  0  0  0  0
   -7.5000    2.5981    0.0000 O   0  0  0  0  0  0  0  0  0  0  0  0
   -7.5000    5.1962    0.0000 N   0  0  0  0  0  0  0  0  0  0  0  0
   -9.0000    5.1962    0.0000 C   0  0  0  0  0  0  0  0  0  0  0  0
   -9.7500    6.4952    0.0000 C   0  0  0  0  0  0  0  0  0  0  0  0
   -9.0000    7.7942    0.0000 C   0  0  0  0  0  0  0  0  0  0  0  0
   -9.7500    9.0933    0.0000 C   0  0  0  0  0  0  0  0  0  0  0  0
  -11.2500    9.0933    0.0000 C   0  0  0  0  0  0  0  0  0  0  0  0
  -12.0000    7.7942    0.0000 C   0  0  0  0  0  0  0  0  0  0  0  0
  -11.2500    6.4952    0.0000 C   0  0  0  0  0  0  0  0  0  0  0  0
   -0.7500    3.8971    0.0000 C   0  0  0  0  0  0  0  0  0  0  0  0
    0.7500    3.8971    0.0000 C   0  0  0  0  0  0  0  0  0  0  0  0
    1.5000    2.5981    0.0000 C   0  0  0  0  0  0  0  0  0  0  0  0
    0.7500    1.2990    0.0000 C   0  0  0  0  0  0  0  0  0  0  0  0
  1  2  1  0
  2  3  1  0
  2  4  1  0
  4  5  2  0
  5  6  1  0
  6  7  2  0
  7  8  1  0
  8  9  2  0
  9 10  1  0
 10 11  2  0
 10 12  2  0
 10 13  1  0
 13 14  1  0
 14 15  1  0
 15 16  1  0
 16 17  1  0
 17 18  1  0
 18 19  1  0
 19 20  2  0
 19 21  1  0
 21 22  1  0
 13 23  1  0
 23 24  1  0
 24 25  2  0
 24 26  1  0
 26 27  1  0
 27 28  1  0
 28 29  2  0
 29 30  1  0
 30 31  2  0
 31 32  1  0
 32 33  2  0
  9 34  1  0
 34 35  2  0
 35 36  1  0
 36 37  2  0
 37  4  1  0
 37  8  1  0
 33 28  1  0
M  END
>  <molecule_chembl_id>  (933) 
CHEMBL4437165

>  <canonical_smiles>  (933) 
CN(C)c1cccc2c(S(=O)(=O)N(CCCCCC(=O)NO)CC(=O)NCc3ccccc3)cccc12

>  <pchembl_value_mean>  (933) 
7.09

>  <document_chembl_id>  (933) 
CHEMBL4396931

$$$$

     RDKit          2D

 28 31  0  0  0  0  0  0  0  0999 V2000
    4.6427   10.0849    0.0000 O   0  0  0  0  0  0  0  0  0  0  0  0
    5.6464    8.9702    0.0000 C   0  0  0  0  0  0  0  0  0  0  0  0
    5.1828    7.5436    0.0000 C   0  0  0  0  0  0  0  0  0  0  0  0
    3.7156    7.2317    0.0000 C   0  0  0  0  0  0  0  0  0  0  0  0
    3.2521    5.8051    0.0000 C   0  0  0  0  0  0  0  0  0  0  0  0
    4.2558    4.6904    0.0000 C   0  0  0  0  0  0  0  0  0  0  0  0
    3.7923    3.2638    0.0000 C   0  0  0  0  0  0  0  0  0  0  0  0
    2.3250    2.9520    0.0000 C   0  0  0  0  0  0  0  0  0  0  0  0
    1.3213    4.0667    0.0000 C   0  0  0  0  0  0  0  0  0  0  0  0
    1.7849    5.4933    0.0000 C   0  0  0  0  0  0  0  0  0  0  0  0
   -0.1459    3.7548    0.0000 C   0  0  0  0  0  0  0  0  0  0  0  0
   -1.1496    4.8695    0.0000 O   0  0  0  0  0  0  0  0  0  0  0  0
   -0.6094    2.3282    0.0000 C   0  0  0  0  0  0  0  0  0  0  0  0
    0.3943    1.2135    0.0000 C   0  0  0  0  0  0  0  0  0  0  0  0
    1.2760    0.0000    0.0000 C   0  0  0  0  0  0  0  0  0  0  0  0
    0.3943   -1.2135    0.0000 C   0  0  0  0  0  0  0  0  0  0  0  0
   -1.0323   -0.7500    0.0000 N   0  0  0  0  0  0  0  0  0  0  0  0
   -2.2458   -1.6317    0.0000 C   0  0  0  0  0  0  0  0  0  0  0  0
   -3.6161   -1.0216    0.0000 C   0  0  0  0  0  0  0  0  0  0  0  0
   -3.7729    0.4702    0.0000 C   0  0  0  0  0  0  0  0  0  0  0  0
   -5.1432    1.0803    0.0000 C   0  0  0  0  0  0  0  0  0  0  0  0
   -6.3568    0.1986    0.0000 C   0  0  0  0  0  0  0  0  0  0  0  0
   -6.2000   -1.2931    0.0000 C   0  0  0  0  0  0  0  0  0  0  0  0
   -4.8297   -1.9033    0.0000 C   0  0  0  0  0  0  0  0  0  0  0  0
   -1.0323    0.7500    0.0000 C   0  0  0  0  0  0  0  0  0  0  0  0
    1.8615    1.5254    0.0000 O   0  0  0  0  0  0  0  0  0  0  0  0
    7.1136    9.2821    0.0000 N   0  0  0  0  0  0  0  0  0  0  0  0
    7.5771   10.7086    0.0000 O   0  0  0  0  0  0  0  0  0  0  0  0
  1  2  2  0
  2  3  1  0
  3  4  2  3
  4  5  1  0
  5  6  2  0
  6  7  1  0
  7  8  2  0
  8  9  1  0
  9 10  2  0
  9 11  1  0
 11 12  2  0
 11 13  1  0
 13 14  1  0
 14 15  1  0
 15 16  1  0
 16 17  1  0
 17 18  1  0
 18 19  1  0
 19 20  2  0
 20 21  1  0
 21 22  2  0
 22 23  1  0
 23 24  2  0
 17 25  1  0
 14 26  1  0
  2 27  1  0
 27 28  1  0
 10  5  1  0
 25 14  1  0
 26  8  1  0
 24 19  1  0
M  END
>  <molecule_chembl_id>  (934) 
CHEMBL3758901

>  <canonical_smiles>  (934) 
O=C(C=Cc1ccc2c(c1)C(=O)CC1(CCN(Cc3ccccc3)C1)O2)NO

>  <pchembl_value_mean>  (934) 
7.09

>  <document_chembl_id>  (934) 
CHEMBL3758162

$$$$

     RDKit          2D

 26 28  0  0  0  0  0  0  0  0999 V2000
    5.8875   -3.9505    0.0000 N   0  0  0  0  0  0  0  0  0  0  0  0
    4.6740   -4.8322    0.0000 C   0  0  0  0  0  0  0  0  0  0  0  0
    4.8308   -6.3240    0.0000 C   0  0  0  0  0  0  0  0  0  0  0  0
    6.2011   -6.9341    0.0000 C   0  0  0  0  0  0  0  0  0  0  0  0
    6.3579   -8.4259    0.0000 C   0  0  0  0  0  0  0  0  0  0  0  0
    7.7282   -9.0360    0.0000 C   0  0  0  0  0  0  0  0  0  0  0  0
    7.8850  -10.5278    0.0000 C   0  0  0  0  0  0  0  0  0  0  0  0
    9.2553  -11.1379    0.0000 C   0  0  0  0  0  0  0  0  0  0  0  0
   10.4688  -10.2562    0.0000 O   0  0  0  0  0  0  0  0  0  0  0  0
    9.4121  -12.6296    0.0000 C   0  0  0  0  0  0  0  0  0  0  0  0
   10.7111  -13.3796    0.0000 C   0  0  0  0  0  0  0  0  0  0  0  0
   10.3993  -14.8469    0.0000 C   0  0  0  0  0  0  0  0  0  0  0  0
    8.9075  -15.0037    0.0000 O   0  0  0  0  0  0  0  0  0  0  0  0
    8.2974  -13.6333    0.0000 N   0  0  0  0  0  0  0  0  0  0  0  0
    3.3037   -4.2221    0.0000 C   0  0  0  0  0  0  0  0  0  0  0  0
    2.0046   -4.9721    0.0000 C   0  0  0  0  0  0  0  0  0  0  0  0
    0.8899   -3.9684    0.0000 N   0  0  0  0  0  0  0  0  0  0  0  0
    1.5000   -2.5981    0.0000 N   0  0  0  0  0  0  0  0  0  0  0  0
    0.7500   -1.2990    0.0000 C   0  0  0  0  0  0  0  0  0  0  0  0
    1.5000    0.0000    0.0000 C   0  0  0  0  0  0  0  0  0  0  0  0
    0.7500    1.2990    0.0000 C   0  0  0  0  0  0  0  0  0  0  0  0
   -0.7500    1.2990    0.0000 C   0  0  0  0  0  0  0  0  0  0  0  0
   -1.5000    2.5981    0.0000 F   0  0  0  0  0  0  0  0  0  0  0  0
   -1.5000    0.0000    0.0000 C   0  0  0  0  0  0  0  0  0  0  0  0
   -0.7500   -1.2990    0.0000 C   0  0  0  0  0  0  0  0  0  0  0  0
    2.9918   -2.7549    0.0000 N   0  0  0  0  0  0  0  0  0  0  0  0
  1  2  1  0
  2  3  1  0
  3  4  1  0
  4  5  1  0
  5  6  1  0
  6  7  1  0
  7  8  1  0
  8  9  2  0
  8 10  1  0
 10 11  1  0
 11 12  2  0
 12 13  1  0
 13 14  1  0
  2 15  1  0
 15 16  1  0
 16 17  2  0
 17 18  1  0
 18 19  1  0
 19 20  2  0
 20 21  1  0
 21 22  2  0
 22 23  1  0
 22 24  1  0
 24 25  2  0
 18 26  1  0
 14 10  2  0
 26 15  2  0
 25 19  1  0
M  END
>  <molecule_chembl_id>  (935) 
CHEMBL4644721

>  <canonical_smiles>  (935) 
NC(CCCCCC(=O)c1ccon1)c1cnn(-c2ccc(F)cc2)n1

>  <pchembl_value_mean>  (935) 
7.09

>  <document_chembl_id>  (935) 
CHEMBL4622967

$$$$

     RDKit          2D

 20 21  0  0  0  0  0  0  0  0999 V2000
    0.7500   -3.8971    0.0000 C   0  0  0  0  0  0  0  0  0  0  0  0
    1.5000   -2.5981    0.0000 N   0  0  0  0  0  0  0  0  0  0  0  0
    0.7500   -1.2990    0.0000 C   0  0  0  0  0  0  0  0  0  0  0  0
    1.5000    0.0000    0.0000 C   0  0  0  0  0  0  0  0  0  0  0  0
    0.7500    1.2990    0.0000 C   0  0  0  0  0  0  0  0  0  0  0  0
   -0.7500    1.2990    0.0000 C   0  0  0  0  0  0  0  0  0  0  0  0
   -1.5000    2.5981    0.0000 Cl  0  0  0  0  0  0  0  0  0  0  0  0
   -1.5000    0.0000    0.0000 C   0  0  0  0  0  0  0  0  0  0  0  0
   -3.0000    0.0000    0.0000 Cl  0  0  0  0  0  0  0  0  0  0  0  0
   -0.7500   -1.2990    0.0000 C   0  0  0  0  0  0  0  0  0  0  0  0
    3.0000   -2.5981    0.0000 C   0  0  0  0  0  0  0  0  0  0  0  0
    3.7500   -3.8971    0.0000 N   0  0  0  0  0  0  0  0  0  0  0  0
    5.2500   -3.8971    0.0000 C   0  0  0  0  0  0  0  0  0  0  0  0
    6.0000   -2.5981    0.0000 C   0  0  0  0  0  0  0  0  0  0  0  0
    7.5000   -2.5981    0.0000 C   0  0  0  0  0  0  0  0  0  0  0  0
    8.2500   -1.2990    0.0000 O   0  0  0  0  0  0  0  0  0  0  0  0
    8.2500   -3.8971    0.0000 N   0  0  0  0  0  0  0  0  0  0  0  0
    9.7500   -3.8971    0.0000 O   0  0  0  0  0  0  0  0  0  0  0  0
    5.2500   -1.2990    0.0000 C   0  0  0  0  0  0  0  0  0  0  0  0
    3.7500   -1.2990    0.0000 N   0  0  0  0  0  0  0  0  0  0  0  0
  1  2  1  0
  2  3  1  0
  3  4  2  0
  4  5  1  0
  5  6  2  0
  6  7  1  0
  6  8  1  0
  8  9  1  0
  8 10  2  0
  2 11  1  0
 11 12  2  0
 12 13  1  0
 13 14  2  0
 14 15  1  0
 15 16  2  0
 15 17  1  0
 17 18  1  0
 14 19  1  0
 19 20  2  0
 10  3  1  0
 20 11  1  0
M  END
>  <molecule_chembl_id>  (936) 
CHEMBL3652232

>  <canonical_smiles>  (936) 
CN(c1ccc(Cl)c(Cl)c1)c1ncc(C(=O)NO)cn1

>  <pchembl_value_mean>  (936) 
7.09

>  <document_chembl_id>  (936) 
CHEMBL3639071

$$$$

     RDKit          2D

 29 29  0  0  0  0  0  0  0  0999 V2000
    9.7500   -3.8971    0.0000 C   0  0  0  0  0  0  0  0  0  0  0  0
    8.2500   -3.8971    0.0000 C   0  0  0  0  0  0  0  0  0  0  0  0
    7.5000   -2.5981    0.0000 N   0  0  0  0  0  0  0  0  0  0  0  0
    8.2500   -1.2990    0.0000 C   0  0  0  0  0  0  0  0  0  0  0  0
    9.7500   -1.2990    0.0000 C   0  0  0  0  0  0  0  0  0  0  0  0
    6.0000   -2.5981    0.0000 C   0  0  0  0  0  0  0  0  0  0  0  0
    5.2500   -1.2990    0.0000 C   0  0  0  0  0  0  0  0  0  0  0  0
    3.7500   -1.2990    0.0000 N   0  0  0  0  0  0  0  0  0  0  0  0
    3.0000    0.0000    0.0000 C   0  0  0  0  0  0  0  0  0  0  0  0
    3.7500    1.2990    0.0000 O   0  0  0  0  0  0  0  0  0  0  0  0
    1.5000    0.0000    0.0000 C   0  0  0  0  0  0  0  0  0  0  0  0
    0.7500   -1.2990    0.0000 C   0  0  0  0  0  0  0  0  0  0  0  0
   -0.7500   -1.2990    0.0000 C   0  0  0  0  0  0  0  0  0  0  0  0
   -1.5000    0.0000    0.0000 C   0  0  0  0  0  0  0  0  0  0  0  0
   -3.0000    0.0000    0.0000 N   0  0  0  0  0  0  0  0  0  0  0  0
   -3.7500    1.2990    0.0000 C   0  0  0  0  0  0  0  0  0  0  0  0
   -3.0000    2.5981    0.0000 O   0  0  0  0  0  0  0  0  0  0  0  0
   -5.2500    1.2990    0.0000 C   0  0  0  0  0  0  0  0  0  0  0  0
   -6.0000    2.5981    0.0000 C   0  0  0  0  0  0  0  0  0  0  0  0
   -7.5000    2.5981    0.0000 C   0  0  0  0  0  0  0  0  0  0  0  0
   -8.2500    3.8971    0.0000 C   0  0  0  0  0  0  0  0  0  0  0  0
   -9.7500    3.8971    0.0000 C   0  0  0  0  0  0  0  0  0  0  0  0
  -10.5000    5.1962    0.0000 C   0  0  0  0  0  0  0  0  0  0  0  0
  -12.0000    5.1962    0.0000 C   0  0  0  0  0  0  0  0  0  0  0  0
  -12.7500    3.8971    0.0000 O   0  0  0  0  0  0  0  0  0  0  0  0
  -12.7500    6.4952    0.0000 N   0  0  0  0  0  0  0  0  0  0  0  0
  -14.2500    6.4952    0.0000 O   0  0  0  0  0  0  0  0  0  0  0  0
   -0.7500    1.2990    0.0000 C   0  0  0  0  0  0  0  0  0  0  0  0
    0.7500    1.2990    0.0000 C   0  0  0  0  0  0  0  0  0  0  0  0
  1  2  1  0
  2  3  1  0
  3  4  1  0
  4  5  1  0
  3  6  1  0
  6  7  1  0
  7  8  1  0
  8  9  1  0
  9 10  2  0
  9 11  1  0
 11 12  2  0
 12 13  1  0
 13 14  2  0
 14 15  1  0
 15 16  1  0
 16 17  2  0
 16 18  1  0
 18 19  1  0
 19 20  1  0
 20 21  1  0
 21 22  1  0
 22 23  1  0
 23 24  1  0
 24 25  2  0
 24 26  1  0
 26 27  1  0
 14 28  1  0
 28 29  2  0
 29 11  1  0
M  END
>  <molecule_chembl_id>  (937) 
CHEMBL5093179

>  <canonical_smiles>  (937) 
CCN(CC)CCNC(=O)c1ccc(NC(=O)CCCCCCC(=O)NO)cc1

>  <pchembl_value_mean>  (937) 
7.1

>  <document_chembl_id>  (937) 
CHEMBL5034012

$$$$

     RDKit          2D

 33 36  0  0  0  0  0  0  0  0999 V2000
    3.7500   -1.2990    0.0000 C   0  0  0  0  0  0  0  0  0  0  0  0
    3.0000    0.0000    0.0000 O   0  0  0  0  0  0  0  0  0  0  0  0
    1.5000    0.0000    0.0000 C   0  0  0  0  0  0  0  0  0  0  0  0
    0.7500   -1.2990    0.0000 C   0  0  0  0  0  0  0  0  0  0  0  0
   -0.7500   -1.2990    0.0000 C   0  0  0  0  0  0  0  0  0  0  0  0
   -1.5000    0.0000    0.0000 C   0  0  0  0  0  0  0  0  0  0  0  0
   -3.0000    0.0000    0.0000 N   0  0  0  0  0  0  0  0  0  0  0  0
   -3.7500    1.2990    0.0000 C   0  0  0  0  0  0  0  0  0  0  0  0
   -5.2500    1.2990    0.0000 C   0  0  0  0  0  0  0  0  0  0  0  0
   -6.0000    2.5981    0.0000 C   0  0  0  0  0  0  0  0  0  0  0  0
   -7.5000    2.5981    0.0000 C   0  0  0  0  0  0  0  0  0  0  0  0
   -8.2500    1.2990    0.0000 C   0  0  0  0  0  0  0  0  0  0  0  0
   -9.7500    1.2990    0.0000 C   0  0  0  0  0  0  0  0  0  0  0  0
  -10.5000    0.0000    0.0000 O   0  0  0  0  0  0  0  0  0  0  0  0
  -10.5000    2.5981    0.0000 N   0  0  0  0  0  0  0  0  0  0  0  0
  -12.0000    2.5981    0.0000 C   0  0  0  0  0  0  0  0  0  0  0  0
  -12.7500    3.8971    0.0000 C   0  0  0  0  0  0  0  0  0  0  0  0
  -14.2500    3.8971    0.0000 C   0  0  0  0  0  0  0  0  0  0  0  0
  -15.0000    5.1962    0.0000 C   0  0  0  0  0  0  0  0  0  0  0  0
  -16.4918    5.3529    0.0000 C   0  0  0  0  0  0  0  0  0  0  0  0
  -16.8037    6.8202    0.0000 C   0  0  0  0  0  0  0  0  0  0  0  0
  -15.5046    7.5702    0.0000 C   0  0  0  0  0  0  0  0  0  0  0  0
  -14.3899    6.5665    0.0000 S   0  0  0  0  0  0  0  0  0  0  0  0
  -15.0000    2.5981    0.0000 C   0  0  0  0  0  0  0  0  0  0  0  0
  -14.2500    1.2990    0.0000 C   0  0  0  0  0  0  0  0  0  0  0  0
  -12.7500    1.2990    0.0000 C   0  0  0  0  0  0  0  0  0  0  0  0
  -12.0000    0.0000    0.0000 N   0  0  0  0  0  0  0  0  0  0  0  0
   -7.5000    0.0000    0.0000 C   0  0  0  0  0  0  0  0  0  0  0  0
   -6.0000    0.0000    0.0000 C   0  0  0  0  0  0  0  0  0  0  0  0
   -0.7500    1.2990    0.0000 C   0  0  0  0  0  0  0  0  0  0  0  0
    0.7500    1.2990    0.0000 C   0  0  0  0  0  0  0  0  0  0  0  0
    1.5000    2.5981    0.0000 O   0  0  0  0  0  0  0  0  0  0  0  0
    0.7500    3.8971    0.0000 C   0  0  0  0  0  0  0  0  0  0  0  0
  1  2  1  0
  2  3  1  0
  3  4  2  0
  4  5  1  0
  5  6  2  0
  6  7  1  0
  7  8  1  0
  8  9  1  0
  9 10  2  0
 10 11  1  0
 11 12  2  0
 12 13  1  0
 13 14  2  0
 13 15  1  0
 15 16  1  0
 16 17  2  0
 17 18  1  0
 18 19  1  0
 19 20  2  0
 20 21  1  0
 21 22  2  0
 22 23  1  0
 18 24  2  0
 24 25  1  0
 25 26  2  0
 26 27  1  0
 12 28  1  0
 28 29  2  0
  6 30  1  0
 30 31  2  0
 31 32  1  0
 32 33  1  0
 31  3  1  0
 29  9  1  0
 26 16  1  0
 23 19  1  0
M  END
>  <molecule_chembl_id>  (938) 
CHEMBL237584

>  <canonical_smiles>  (938) 
COc1ccc(NCc2ccc(C(=O)Nc3cc(-c4cccs4)ccc3N)cc2)cc1OC

>  <pchembl_value_mean>  (938) 
7.1

>  <document_chembl_id>  (938) 
CHEMBL1138236

$$$$

     RDKit          2D

 21 23  0  0  0  0  0  0  0  0999 V2000
    3.7500    1.2990    0.0000 O   0  0  0  0  0  0  0  0  0  0  0  0
    3.0000    0.0000    0.0000 C   0  0  0  0  0  0  0  0  0  0  0  0
    3.7500   -1.2990    0.0000 N   0  0  0  0  0  0  0  0  0  0  0  0
    5.2500   -1.2990    0.0000 O   0  0  0  0  0  0  0  0  0  0  0  0
    1.5000    0.0000    0.0000 C   0  0  0  0  0  0  0  0  0  0  0  0
    0.7500   -1.2990    0.0000 C   0  0  0  0  0  0  0  0  0  0  0  0
   -0.7500   -1.2990    0.0000 N   0  0  0  0  0  0  0  0  0  0  0  0
   -1.5000    0.0000    0.0000 C   0  0  0  0  0  0  0  0  0  0  0  0
   -3.0000    0.0000    0.0000 N   0  0  0  0  0  0  0  0  0  0  0  0
   -3.7500    1.2990    0.0000 C   0  0  0  0  0  0  0  0  0  0  0  0
   -5.1595    0.7860    0.0000 C   0  0  0  0  0  0  0  0  0  0  0  0
   -5.4200   -0.6912    0.0000 C   0  0  0  0  0  0  0  0  0  0  0  0
   -6.8296   -1.2042    0.0000 C   0  0  0  0  0  0  0  0  0  0  0  0
   -7.9786   -0.2401    0.0000 C   0  0  0  0  0  0  0  0  0  0  0  0
   -9.3882   -0.7531    0.0000 F   0  0  0  0  0  0  0  0  0  0  0  0
   -7.7181    1.2372    0.0000 C   0  0  0  0  0  0  0  0  0  0  0  0
   -6.3086    1.7502    0.0000 C   0  0  0  0  0  0  0  0  0  0  0  0
   -4.0105    2.7762    0.0000 C   0  0  0  0  0  0  0  0  0  0  0  0
   -2.6009    2.2632    0.0000 C   0  0  0  0  0  0  0  0  0  0  0  0
   -0.7500    1.2990    0.0000 N   0  0  0  0  0  0  0  0  0  0  0  0
    0.7500    1.2990    0.0000 C   0  0  0  0  0  0  0  0  0  0  0  0
  1  2  2  0
  2  3  1  0
  3  4  1  0
  2  5  1  0
  5  6  2  0
  6  7  1  0
  7  8  2  0
  8  9  1  0
  9 10  1  0
 10 11  1  0
 11 12  2  0
 12 13  1  0
 13 14  2  0
 14 15  1  0
 14 16  1  0
 16 17  2  0
 10 18  1  0
 18 19  1  0
  8 20  1  0
 20 21  2  0
 21  5  1  0
 19 10  1  0
 17 11  1  0
M  END
>  <molecule_chembl_id>  (939) 
CHEMBL3655958

>  <canonical_smiles>  (939) 
O=C(NO)c1cnc(NC2(c3ccc(F)cc3)CC2)nc1

>  <pchembl_value_mean>  (939) 
7.11

>  <document_chembl_id>  (939) 
CHEMBL3639071

$$$$

     RDKit          2D

 34 38  0  0  0  0  0  0  0  0999 V2000
    1.5725  -16.6624    0.0000 N   0  0  0  0  0  0  0  0  0  0  0  0
    0.6908  -17.8759    0.0000 C   0  0  0  0  0  0  0  0  0  0  0  0
    1.3009  -19.2462    0.0000 C   0  0  0  0  0  0  0  0  0  0  0  0
    0.4192  -20.4597    0.0000 C   0  0  0  0  0  0  0  0  0  0  0  0
   -1.0726  -20.3029    0.0000 C   0  0  0  0  0  0  0  0  0  0  0  0
   -1.6827  -18.9326    0.0000 C   0  0  0  0  0  0  0  0  0  0  0  0
   -0.8010  -17.7191    0.0000 C   0  0  0  0  0  0  0  0  0  0  0  0
   -1.4111  -16.3488    0.0000 N   0  0  0  0  0  0  0  0  0  0  0  0
   -0.5294  -15.1352    0.0000 C   0  0  0  0  0  0  0  0  0  0  0  0
    0.9623  -15.2920    0.0000 O   0  0  0  0  0  0  0  0  0  0  0  0
   -1.1395  -13.7649    0.0000 C   0  0  0  0  0  0  0  0  0  0  0  0
   -0.2579  -12.5514    0.0000 C   0  0  0  0  0  0  0  0  0  0  0  0
   -0.8680  -11.1811    0.0000 C   0  0  0  0  0  0  0  0  0  0  0  0
   -2.3597  -11.0243    0.0000 C   0  0  0  0  0  0  0  0  0  0  0  0
   -2.9699   -9.6540    0.0000 C   0  0  0  0  0  0  0  0  0  0  0  0
   -2.0882   -8.4404    0.0000 N   0  0  0  0  0  0  0  0  0  0  0  0
   -2.6983   -7.0701    0.0000 C   0  0  0  0  0  0  0  0  0  0  0  0
   -4.1655   -6.7583    0.0000 N   0  0  0  0  0  0  0  0  0  0  0  0
   -4.3223   -5.2665    0.0000 C   0  0  0  0  0  0  0  0  0  0  0  0
   -5.6213   -4.5165    0.0000 O   0  0  0  0  0  0  0  0  0  0  0  0
   -2.9520   -4.6564    0.0000 C   0  0  0  0  0  0  0  0  0  0  0  0
   -2.6401   -3.1891    0.0000 C   0  0  0  0  0  0  0  0  0  0  0  0
   -1.2135   -2.7256    0.0000 C   0  0  0  0  0  0  0  0  0  0  0  0
   -0.0000   -3.6073    0.0000 C   0  0  0  0  0  0  0  0  0  0  0  0
    1.2135   -2.7256    0.0000 N   0  0  0  0  0  0  0  0  0  0  0  0
    0.7500   -1.2990    0.0000 C   0  0  0  0  0  0  0  0  0  0  0  0
    1.5000    0.0000    0.0000 C   0  0  0  0  0  0  0  0  0  0  0  0
    0.7500    1.2990    0.0000 C   0  0  0  0  0  0  0  0  0  0  0  0
   -0.7500    1.2990    0.0000 C   0  0  0  0  0  0  0  0  0  0  0  0
   -1.5000    0.0000    0.0000 C   0  0  0  0  0  0  0  0  0  0  0  0
   -0.7500   -1.2990    0.0000 C   0  0  0  0  0  0  0  0  0  0  0  0
   -1.9483   -5.7711    0.0000 N   0  0  0  0  0  0  0  0  0  0  0  0
   -3.2414  -12.2378    0.0000 C   0  0  0  0  0  0  0  0  0  0  0  0
   -2.6313  -13.6081    0.0000 C   0  0  0  0  0  0  0  0  0  0  0  0
  1  2  1  0
  2  3  2  0
  3  4  1  0
  4  5  2  0
  5  6  1  0
  6  7  2  0
  7  8  1  0
  8  9  1  0
  9 10  2  0
  9 11  1  0
 11 12  2  0
 12 13  1  0
 13 14  2  0
 14 15  1  0
 15 16  1  0
 16 17  1  0
 17 18  2  0
 18 19  1  0
 19 20  2  0
 19 21  1  0
 21 22  1  0
 22 23  1  0
 23 24  2  0
 24 25  1  0
 25 26  1  0
 26 27  2  0
 27 28  1  0
 28 29  2  0
 29 30  1  0
 30 31  2  0
 21 32  1  0
 14 33  1  0
 33 34  2  0
  7  2  1  0
 34 11  1  0
 32 17  1  0
 31 23  1  0
 31 26  1  0
M  END
>  <molecule_chembl_id>  (940) 
CHEMBL2407733

>  <canonical_smiles>  (940) 
Nc1ccccc1NC(=O)c1ccc(CNC2=NC(=O)C(Cc3c[nH]c4ccccc34)N2)cc1

>  <pchembl_value_mean>  (940) 
7.11

>  <document_chembl_id>  (940) 
CHEMBL2407081

$$$$

     RDKit          2D

 25 26  0  0  0  0  0  0  0  0999 V2000
    8.7718   -8.1269    0.0000 O   0  0  0  0  0  0  0  0  0  0  0  0
    7.5583   -7.2452    0.0000 C   0  0  0  0  0  0  0  0  0  0  0  0
    7.5583   -5.7452    0.0000 C   0  0  0  0  0  0  0  0  0  0  0  0
    6.1317   -5.2817    0.0000 C   0  0  0  0  0  0  0  0  0  0  0  0
    5.2500   -6.4952    0.0000 C   0  0  0  0  0  0  0  0  0  0  0  0
    3.7500   -6.4952    0.0000 C   0  0  0  0  0  0  0  0  0  0  0  0
    3.0000   -7.7942    0.0000 O   0  0  0  0  0  0  0  0  0  0  0  0
    3.0000   -5.1962    0.0000 N   0  0  0  0  0  0  0  0  0  0  0  0
    1.5000   -5.1962    0.0000 C   0  0  0  0  0  0  0  0  0  0  0  0
    0.7500   -6.4952    0.0000 C   0  0  0  0  0  0  0  0  0  0  0  0
    1.5000   -7.7942    0.0000 C   0  0  0  0  0  0  0  0  0  0  0  0
    0.7500   -9.0933    0.0000 C   0  0  0  0  0  0  0  0  0  0  0  0
    1.5000  -10.3923    0.0000 C   0  0  0  0  0  0  0  0  0  0  0  0
    0.7500  -11.6913    0.0000 C   0  0  0  0  0  0  0  0  0  0  0  0
    1.5000  -12.9904    0.0000 S   0  0  0  0  0  0  0  0  0  0  0  0
    0.7500   -3.8971    0.0000 C   0  0  0  0  0  0  0  0  0  0  0  0
   -0.7500   -3.8971    0.0000 O   0  0  0  0  0  0  0  0  0  0  0  0
    1.5000   -2.5981    0.0000 N   0  0  0  0  0  0  0  0  0  0  0  0
    0.7500   -1.2990    0.0000 C   0  0  0  0  0  0  0  0  0  0  0  0
    1.5000    0.0000    0.0000 C   0  0  0  0  0  0  0  0  0  0  0  0
    0.7500    1.2990    0.0000 C   0  0  0  0  0  0  0  0  0  0  0  0
   -0.7500    1.2990    0.0000 C   0  0  0  0  0  0  0  0  0  0  0  0
   -1.5000    0.0000    0.0000 C   0  0  0  0  0  0  0  0  0  0  0  0
   -0.7500   -1.2990    0.0000 C   0  0  0  0  0  0  0  0  0  0  0  0
    6.1317   -7.7087    0.0000 N   0  0  0  0  0  0  0  0  0  0  0  0
  1  2  2  0
  2  3  1  0
  3  4  1  0
  4  5  1  0
  5  6  1  0
  6  7  2  0
  6  8  1  0
  8  9  1  0
  9 10  1  0
 10 11  1  0
 11 12  1  0
 12 13  1  0
 13 14  1  0
 14 15  1  0
  9 16  1  0
 16 17  2  0
 16 18  1  0
 18 19  1  0
 19 20  2  0
 20 21  1  0
 21 22  2  0
 22 23  1  0
 23 24  2  0
  5 25  1  0
 25  2  1  0
 24 19  1  0
M  END
>  <molecule_chembl_id>  (941) 
CHEMBL3353925

>  <canonical_smiles>  (941) 
O=C1CCC(C(=O)NC(CCCCCS)C(=O)Nc2ccccc2)N1

>  <pchembl_value_mean>  (941) 
7.1175

>  <document_chembl_id>  (941) 
CHEMBL3352629

$$$$

     RDKit          2D

 24 26  0  0  0  0  0  0  0  0999 V2000
    3.0000    0.0000    0.0000 C   0  0  0  0  0  0  0  0  0  0  0  0
    1.5000    0.0000    0.0000 C   0  0  0  0  0  0  0  0  0  0  0  0
    0.7500   -1.2990    0.0000 C   0  0  0  0  0  0  0  0  0  0  0  0
   -0.7500   -1.2990    0.0000 C   0  0  0  0  0  0  0  0  0  0  0  0
   -1.5000    0.0000    0.0000 C   0  0  0  0  0  0  0  0  0  0  0  0
   -3.0000    0.0000    0.0000 C   0  0  0  0  0  0  0  0  0  0  0  0
   -3.8817   -1.2135    0.0000 C   0  0  0  0  0  0  0  0  0  0  0  0
   -5.3083   -0.7500    0.0000 C   0  0  0  0  0  0  0  0  0  0  0  0
   -6.5218   -1.6317    0.0000 C   0  0  0  0  0  0  0  0  0  0  0  0
   -5.3083    0.7500    0.0000 N   0  0  0  0  0  0  0  0  0  0  0  0
   -3.8817    1.2135    0.0000 N   0  0  0  0  0  0  0  0  0  0  0  0
   -3.4182    2.6401    0.0000 C   0  0  0  0  0  0  0  0  0  0  0  0
   -4.4218    3.7548    0.0000 C   0  0  0  0  0  0  0  0  0  0  0  0
   -3.9583    5.1814    0.0000 C   0  0  0  0  0  0  0  0  0  0  0  0
   -4.9620    6.2961    0.0000 C   0  0  0  0  0  0  0  0  0  0  0  0
   -6.4292    5.9843    0.0000 C   0  0  0  0  0  0  0  0  0  0  0  0
   -7.4329    7.0990    0.0000 C   0  0  0  0  0  0  0  0  0  0  0  0
   -8.9002    6.7871    0.0000 O   0  0  0  0  0  0  0  0  0  0  0  0
   -6.9694    8.5256    0.0000 N   0  0  0  0  0  0  0  0  0  0  0  0
   -7.9731    9.6403    0.0000 O   0  0  0  0  0  0  0  0  0  0  0  0
   -6.8928    4.5577    0.0000 C   0  0  0  0  0  0  0  0  0  0  0  0
   -5.8891    3.4430    0.0000 C   0  0  0  0  0  0  0  0  0  0  0  0
   -0.7500    1.2990    0.0000 C   0  0  0  0  0  0  0  0  0  0  0  0
    0.7500    1.2990    0.0000 C   0  0  0  0  0  0  0  0  0  0  0  0
  1  2  1  0
  2  3  2  0
  3  4  1  0
  4  5  2  0
  5  6  1  0
  6  7  2  0
  7  8  1  0
  8  9  1  0
  8 10  2  0
 10 11  1  0
 11 12  1  0
 12 13  1  0
 13 14  2  0
 14 15  1  0
 15 16  2  0
 16 17  1  0
 17 18  2  0
 17 19  1  0
 19 20  1  0
 16 21  1  0
 21 22  2  0
  5 23  1  0
 23 24  2  0
 24  2  1  0
 11  6  1  0
 22 13  1  0
M  END
>  <molecule_chembl_id>  (942) 
CHEMBL4228291

>  <canonical_smiles>  (942) 
Cc1ccc(-c2cc(C)nn2Cc2ccc(C(=O)NO)cc2)cc1

>  <pchembl_value_mean>  (942) 
7.12

>  <document_chembl_id>  (942) 
CHEMBL4219109

$$$$

     RDKit          2D

 24 25  0  0  0  0  0  0  0  0999 V2000
    7.5000   -2.5981    0.0000 C   0  0  0  0  0  0  0  0  0  0  0  0
    6.0000   -2.5981    0.0000 C   0  0  0  0  0  0  0  0  0  0  0  0
    5.2500   -1.2990    0.0000 N   0  0  0  0  0  0  0  0  0  0  0  0
    3.7500   -1.2990    0.0000 N   0  0  0  0  0  0  0  0  0  0  0  0
    3.0000    0.0000    0.0000 C   0  0  0  0  0  0  0  0  0  0  0  0
    3.7500    1.2990    0.0000 O   0  0  0  0  0  0  0  0  0  0  0  0
    1.5000    0.0000    0.0000 C   0  0  0  0  0  0  0  0  0  0  0  0
    0.7500   -1.2990    0.0000 C   0  0  0  0  0  0  0  0  0  0  0  0
   -0.7500   -1.2990    0.0000 C   0  0  0  0  0  0  0  0  0  0  0  0
   -1.5000    0.0000    0.0000 C   0  0  0  0  0  0  0  0  0  0  0  0
   -3.0000    0.0000    0.0000 C   0  0  0  0  0  0  0  0  0  0  0  0
   -3.7500    1.2990    0.0000 N   0  0  0  0  0  0  0  0  0  0  0  0
   -5.2500    1.2990    0.0000 C   0  0  0  0  0  0  0  0  0  0  0  0
   -6.0000    0.0000    0.0000 O   0  0  0  0  0  0  0  0  0  0  0  0
   -6.0000    2.5981    0.0000 C   0  0  0  0  0  0  0  0  0  0  0  0
   -7.5000    2.5981    0.0000 C   0  0  0  0  0  0  0  0  0  0  0  0
   -8.2500    3.8971    0.0000 C   0  0  0  0  0  0  0  0  0  0  0  0
   -7.5000    5.1962    0.0000 C   0  0  0  0  0  0  0  0  0  0  0  0
   -8.2500    6.4952    0.0000 C   0  0  0  0  0  0  0  0  0  0  0  0
   -9.7500    6.4952    0.0000 C   0  0  0  0  0  0  0  0  0  0  0  0
  -10.5000    5.1962    0.0000 C   0  0  0  0  0  0  0  0  0  0  0  0
   -9.7500    3.8971    0.0000 C   0  0  0  0  0  0  0  0  0  0  0  0
   -0.7500    1.2990    0.0000 C   0  0  0  0  0  0  0  0  0  0  0  0
    0.7500    1.2990    0.0000 C   0  0  0  0  0  0  0  0  0  0  0  0
  1  2  1  0
  2  3  1  0
  3  4  1  0
  4  5  1  0
  5  6  2  0
  5  7  1  0
  7  8  2  0
  8  9  1  0
  9 10  2  0
 10 11  1  0
 11 12  1  0
 12 13  1  0
 13 14  2  0
 13 15  1  0
 15 16  2  3
 16 17  1  0
 17 18  2  0
 18 19  1  0
 19 20  2  0
 20 21  1  0
 21 22  2  0
 10 23  1  0
 23 24  2  0
 24  7  1  0
 22 17  1  0
M  END
>  <molecule_chembl_id>  (943) 
CHEMBL4786837

>  <canonical_smiles>  (943) 
CCNNC(=O)c1ccc(CNC(=O)C=Cc2ccccc2)cc1

>  <pchembl_value_mean>  (943) 
7.12

>  <document_chembl_id>  (943) 
CHEMBL4680089

$$$$

     RDKit          2D

 39 42  0  0  0  0  0  0  0  0999 V2000
   14.7990   -8.5442    0.0000 C   0  0  0  0  0  0  0  0  0  0  0  0
   13.2990   -8.5442    0.0000 C   0  0  0  0  0  0  0  0  0  0  0  0
   12.5490   -7.2452    0.0000 C   0  0  0  0  0  0  0  0  0  0  0  0
   13.2990   -5.9462    0.0000 O   0  0  0  0  0  0  0  0  0  0  0  0
   11.0490   -7.2452    0.0000 C   0  0  0  0  0  0  0  0  0  0  0  0
   10.2990   -5.9462    0.0000 C   0  0  0  0  0  0  0  0  0  0  0  0
    8.7990   -5.9462    0.0000 C   0  0  0  0  0  0  0  0  0  0  0  0
    8.0490   -4.6471    0.0000 C   0  0  0  0  0  0  0  0  0  0  0  0
    6.5490   -4.6471    0.0000 C   0  0  0  0  0  0  0  0  0  0  0  0
    5.7990   -3.3481    0.0000 C   0  0  0  0  0  0  0  0  0  0  0  0
    4.2990   -3.3481    0.0000 N   0  0  0  0  0  0  0  0  0  0  0  0
    3.5490   -2.0490    0.0000 C   0  0  0  0  0  0  0  0  0  0  0  0
    4.2990   -0.7500    0.0000 O   0  0  0  0  0  0  0  0  0  0  0  0
    2.0490   -2.0490    0.0000 C   0  0  0  0  0  0  0  0  0  0  0  0
    0.7500   -2.7990    0.0000 C   0  0  0  0  0  0  0  0  0  0  0  0
    0.7500   -1.2990    0.0000 C   0  0  0  0  0  0  0  0  0  0  0  0
    1.5000    0.0000    0.0000 C   0  0  0  0  0  0  0  0  0  0  0  0
    0.7500    1.2990    0.0000 C   0  0  0  0  0  0  0  0  0  0  0  0
   -0.7500    1.2990    0.0000 N   0  0  0  0  0  0  0  0  0  0  0  0
   -1.5000    2.5981    0.0000 C   0  0  0  0  0  0  0  0  0  0  0  0
   -0.7500    3.8971    0.0000 C   0  0  0  0  0  0  0  0  0  0  0  0
   -1.5000    0.0000    0.0000 C   0  0  0  0  0  0  0  0  0  0  0  0
   -0.7500   -1.2990    0.0000 C   0  0  0  0  0  0  0  0  0  0  0  0
    6.5490   -2.0490    0.0000 C   0  0  0  0  0  0  0  0  0  0  0  0
    5.9389   -0.6787    0.0000 N   0  0  0  0  0  0  0  0  0  0  0  0
    7.0537    0.3250    0.0000 C   0  0  0  0  0  0  0  0  0  0  0  0
    8.3527   -0.4250    0.0000 C   0  0  0  0  0  0  0  0  0  0  0  0
    9.7230    0.1851    0.0000 C   0  0  0  0  0  0  0  0  0  0  0  0
   10.9365   -0.6966    0.0000 C   0  0  0  0  0  0  0  0  0  0  0  0
   12.3069   -0.0865    0.0000 C   0  0  0  0  0  0  0  0  0  0  0  0
   13.5204   -0.9682    0.0000 C   0  0  0  0  0  0  0  0  0  0  0  0
   13.3636   -2.4600    0.0000 C   0  0  0  0  0  0  0  0  0  0  0  0
   14.8907   -0.3581    0.0000 C   0  0  0  0  0  0  0  0  0  0  0  0
   12.4636    1.4053    0.0000 C   0  0  0  0  0  0  0  0  0  0  0  0
   11.2501    2.2870    0.0000 C   0  0  0  0  0  0  0  0  0  0  0  0
    9.8798    1.6769    0.0000 C   0  0  0  0  0  0  0  0  0  0  0  0
    8.6663    2.5585    0.0000 O   0  0  0  0  0  0  0  0  0  0  0  0
    8.8231    4.0503    0.0000 C   0  0  0  0  0  0  0  0  0  0  0  0
    8.0408   -1.8922    0.0000 N   0  0  0  0  0  0  0  0  0  0  0  0
  1  2  1  0
  2  3  1  0
  3  4  2  0
  3  5  1  0
  5  6  1  0
  6  7  1  0
  7  8  1  0
  8  9  1  0
  9 10  1  0
 10 11  1  0
 11 12  1  0
 12 13  2  0
 12 14  1  0
 14 15  1  0
 15 16  1  0
 16 17  1  0
 17 18  1  0
 18 19  1  0
 19 20  1  0
 20 21  1  0
 19 22  1  0
 22 23  1  0
 10 24  1  0
 24 25  2  0
 25 26  1  0
 26 27  2  0
 27 28  1  0
 28 29  2  0
 29 30  1  0
 30 31  1  0
 31 32  1  0
 31 33  1  0
 30 34  2  0
 34 35  1  0
 35 36  2  0
 36 37  1  0
 37 38  1  0
 27 39  1  0
 16 14  1  0
 39 24  1  0
 23 16  1  0
 36 28  1  0
M  END
>  <molecule_chembl_id>  (944) 
CHEMBL4753460

>  <canonical_smiles>  (944) 
CCC(=O)CCCCCC(NC(=O)C1CC12CCN(CC)CC2)c1ncc(-c2cc(C(C)C)ccc2OC)[nH]1

>  <pchembl_value_mean>  (944) 
7.12

>  <document_chembl_id>  (944) 
CHEMBL4680369

$$$$

     RDKit          2D

 33 37  0  0  0  0  0  0  0  0999 V2000
   -8.5256    0.3621    0.0000 O   0  0  0  0  0  0  0  0  0  0  0  0
   -7.0990    0.8256    0.0000 C   0  0  0  0  0  0  0  0  0  0  0  0
   -6.7871    2.2929    0.0000 N   0  0  0  0  0  0  0  0  0  0  0  0
   -7.9018    3.2966    0.0000 O   0  0  0  0  0  0  0  0  0  0  0  0
   -5.9843   -0.1781    0.0000 C   0  0  0  0  0  0  0  0  0  0  0  0
   -4.5577    0.2855    0.0000 C   0  0  0  0  0  0  0  0  0  0  0  0
   -3.4430   -0.7182    0.0000 C   0  0  0  0  0  0  0  0  0  0  0  0
   -3.7548   -2.1855    0.0000 C   0  0  0  0  0  0  0  0  0  0  0  0
   -2.6401   -3.1891    0.0000 C   0  0  0  0  0  0  0  0  0  0  0  0
   -1.2135   -2.7256    0.0000 N   0  0  0  0  0  0  0  0  0  0  0  0
   -0.0000   -3.6073    0.0000 C   0  0  0  0  0  0  0  0  0  0  0  0
    0.0000   -5.1073    0.0000 O   0  0  0  0  0  0  0  0  0  0  0  0
    1.2135   -2.7256    0.0000 C   0  0  0  0  0  0  0  0  0  0  0  0
    2.6401   -3.1891    0.0000 C   0  0  0  0  0  0  0  0  0  0  0  0
    3.1036   -4.6157    0.0000 N   0  0  0  0  0  0  0  0  0  0  0  0
    4.6036   -4.6157    0.0000 C   0  0  0  0  0  0  0  0  0  0  0  0
    5.6073   -5.7305    0.0000 C   0  0  0  0  0  0  0  0  0  0  0  0
    7.0746   -5.4186    0.0000 C   0  0  0  0  0  0  0  0  0  0  0  0
    7.5381   -3.9920    0.0000 C   0  0  0  0  0  0  0  0  0  0  0  0
    6.5344   -2.8773    0.0000 C   0  0  0  0  0  0  0  0  0  0  0  0
    5.0672   -3.1891    0.0000 C   0  0  0  0  0  0  0  0  0  0  0  0
    3.8536   -2.3075    0.0000 C   0  0  0  0  0  0  0  0  0  0  0  0
    3.8536   -0.8075    0.0000 N   0  0  0  0  0  0  0  0  0  0  0  0
    5.1527   -0.0575    0.0000 O   0  0  0  0  0  0  0  0  0  0  0  0
    0.7500   -1.2990    0.0000 C   0  0  0  0  0  0  0  0  0  0  0  0
    1.5000    0.0000    0.0000 C   0  0  0  0  0  0  0  0  0  0  0  0
    0.7500    1.2990    0.0000 C   0  0  0  0  0  0  0  0  0  0  0  0
    1.5000    2.5981    0.0000 Br  0  0  0  0  0  0  0  0  0  0  0  0
   -0.7500    1.2990    0.0000 C   0  0  0  0  0  0  0  0  0  0  0  0
   -1.5000    0.0000    0.0000 C   0  0  0  0  0  0  0  0  0  0  0  0
   -0.7500   -1.2990    0.0000 C   0  0  0  0  0  0  0  0  0  0  0  0
   -5.1814   -2.6490    0.0000 C   0  0  0  0  0  0  0  0  0  0  0  0
   -6.2961   -1.6453    0.0000 C   0  0  0  0  0  0  0  0  0  0  0  0
  1  2  2  0
  2  3  1  0
  3  4  1  0
  2  5  1  0
  5  6  2  0
  6  7  1  0
  7  8  2  0
  8  9  1  0
  9 10  1  0
 10 11  1  0
 11 12  2  0
 11 13  1  0
 13 14  2  3
 14 15  1  0
 15 16  1  0
 16 17  2  0
 17 18  1  0
 18 19  2  0
 19 20  1  0
 20 21  2  0
 21 22  1  0
 22 23  2  3
 23 24  1  0
 13 25  1  0
 25 26  2  0
 26 27  1  0
 27 28  1  0
 27 29  2  0
 29 30  1  0
 30 31  2  0
  8 32  1  0
 32 33  2  0
 33  5  1  0
 31 10  1  0
 22 14  1  0
 31 25  1  0
 21 16  1  0
M  END
>  <molecule_chembl_id>  (945) 
CHEMBL4764495

>  <canonical_smiles>  (945) 
O=C(NO)c1ccc(CN2C(=O)C(=C3Nc4ccccc4C3=NO)c3cc(Br)ccc32)cc1

>  <pchembl_value_mean>  (945) 
7.12

>  <document_chembl_id>  (945) 
CHEMBL4699494

$$$$

     RDKit          2D

 32 35  0  0  0  0  0  0  0  0999 V2000
  -12.1352  -10.3720    0.0000 N   0  0  0  0  0  0  0  0  0  0  0  0
  -13.2499   -9.3683    0.0000 C   0  0  0  0  0  0  0  0  0  0  0  0
  -14.6765   -9.8318    0.0000 C   0  0  0  0  0  0  0  0  0  0  0  0
  -15.7912   -8.8281    0.0000 C   0  0  0  0  0  0  0  0  0  0  0  0
  -17.2178   -9.2916    0.0000 F   0  0  0  0  0  0  0  0  0  0  0  0
  -15.4794   -7.3609    0.0000 C   0  0  0  0  0  0  0  0  0  0  0  0
  -14.0528   -6.8974    0.0000 C   0  0  0  0  0  0  0  0  0  0  0  0
  -12.9381   -7.9010    0.0000 C   0  0  0  0  0  0  0  0  0  0  0  0
  -11.5115   -7.4375    0.0000 N   0  0  0  0  0  0  0  0  0  0  0  0
  -10.3968   -8.4412    0.0000 C   0  0  0  0  0  0  0  0  0  0  0  0
  -10.7086   -9.9084    0.0000 O   0  0  0  0  0  0  0  0  0  0  0  0
   -8.9702   -7.9777    0.0000 C   0  0  0  0  0  0  0  0  0  0  0  0
   -7.8555   -8.9814    0.0000 C   0  0  0  0  0  0  0  0  0  0  0  0
   -6.4289   -8.5179    0.0000 C   0  0  0  0  0  0  0  0  0  0  0  0
   -6.1170   -7.0506    0.0000 C   0  0  0  0  0  0  0  0  0  0  0  0
   -4.6904   -6.5871    0.0000 C   0  0  0  0  0  0  0  0  0  0  0  0
   -4.3786   -5.1199    0.0000 N   0  0  0  0  0  0  0  0  0  0  0  0
   -2.9520   -4.6564    0.0000 C   0  0  0  0  0  0  0  0  0  0  0  0
   -1.8373   -5.6601    0.0000 O   0  0  0  0  0  0  0  0  0  0  0  0
   -2.6401   -3.1891    0.0000 C   0  0  0  0  0  0  0  0  0  0  0  0
   -1.2135   -2.7256    0.0000 C   0  0  0  0  0  0  0  0  0  0  0  0
   -0.0000   -3.6073    0.0000 N   0  0  0  0  0  0  0  0  0  0  0  0
    1.2135   -2.7256    0.0000 C   0  0  0  0  0  0  0  0  0  0  0  0
    2.6401   -3.1891    0.0000 O   0  0  0  0  0  0  0  0  0  0  0  0
    0.7500   -1.2990    0.0000 C   0  0  0  0  0  0  0  0  0  0  0  0
    1.5000    0.0000    0.0000 C   0  0  0  0  0  0  0  0  0  0  0  0
    0.7500    1.2990    0.0000 C   0  0  0  0  0  0  0  0  0  0  0  0
   -0.7500    1.2990    0.0000 C   0  0  0  0  0  0  0  0  0  0  0  0
   -1.5000    0.0000    0.0000 C   0  0  0  0  0  0  0  0  0  0  0  0
   -0.7500   -1.2990    0.0000 C   0  0  0  0  0  0  0  0  0  0  0  0
   -7.2317   -6.0469    0.0000 C   0  0  0  0  0  0  0  0  0  0  0  0
   -8.6583   -6.5105    0.0000 C   0  0  0  0  0  0  0  0  0  0  0  0
  1  2  1  0
  2  3  2  0
  3  4  1  0
  4  5  1  0
  4  6  2  0
  6  7  1  0
  7  8  2  0
  8  9  1  0
  9 10  1  0
 10 11  2  0
 10 12  1  0
 12 13  2  0
 13 14  1  0
 14 15  2  0
 15 16  1  0
 16 17  1  0
 17 18  1  0
 18 19  2  0
 18 20  1  0
 20 21  2  3
 21 22  1  0
 22 23  1  0
 23 24  2  0
 23 25  1  0
 25 26  2  0
 26 27  1  0
 27 28  2  0
 28 29  1  0
 29 30  2  0
 15 31  1  0
 31 32  2  0
  8  2  1  0
 32 12  1  0
 30 21  1  0
 30 25  1  0
M  END
>  <molecule_chembl_id>  (946) 
CHEMBL4561073

>  <canonical_smiles>  (946) 
Nc1cc(F)ccc1NC(=O)c1ccc(CNC(=O)C=C2NC(=O)c3ccccc32)cc1

>  <pchembl_value_mean>  (946) 
7.12

>  <document_chembl_id>  (946) 
CHEMBL4387704

$$$$

     RDKit          2D

 33 36  0  0  0  0  0  0  0  0999 V2000
   -7.5000   -5.1962    0.0000 O   0  0  0  0  0  0  0  0  0  0  0  0
   -6.0000   -5.1962    0.0000 C   0  0  0  0  0  0  0  0  0  0  0  0
   -5.2500   -6.4952    0.0000 N   0  0  0  0  0  0  0  0  0  0  0  0
   -6.0000   -7.7942    0.0000 O   0  0  0  0  0  0  0  0  0  0  0  0
   -5.2500   -3.8971    0.0000 C   0  0  0  0  0  0  0  0  0  0  0  0
   -3.7500   -3.8971    0.0000 C   0  0  0  0  0  0  0  0  0  0  0  0
   -3.0000   -2.5981    0.0000 N   0  0  0  0  0  0  0  0  0  0  0  0
   -3.7500   -1.2990    0.0000 C   0  0  0  0  0  0  0  0  0  0  0  0
   -3.0000    0.0000    0.0000 N   0  0  0  0  0  0  0  0  0  0  0  0
   -3.7500    1.2990    0.0000 C   0  0  0  0  0  0  0  0  0  0  0  0
   -2.3405    1.8121    0.0000 C   0  0  0  0  0  0  0  0  0  0  0  0
   -1.1914    0.8479    0.0000 C   0  0  0  0  0  0  0  0  0  0  0  0
    0.2181    1.3609    0.0000 C   0  0  0  0  0  0  0  0  0  0  0  0
    0.4786    2.8381    0.0000 C   0  0  0  0  0  0  0  0  0  0  0  0
   -0.6704    3.8023    0.0000 C   0  0  0  0  0  0  0  0  0  0  0  0
   -2.0800    3.2893    0.0000 C   0  0  0  0  0  0  0  0  0  0  0  0
   -4.8991    0.3349    0.0000 C   0  0  0  0  0  0  0  0  0  0  0  0
   -6.3086    0.8479    0.0000 C   0  0  0  0  0  0  0  0  0  0  0  0
   -6.5691    2.3251    0.0000 N   0  0  0  0  0  0  0  0  0  0  0  0
   -7.9786    2.8381    0.0000 C   0  0  0  0  0  0  0  0  0  0  0  0
   -9.1277    1.8739    0.0000 O   0  0  0  0  0  0  0  0  0  0  0  0
   -8.2391    4.3153    0.0000 N   0  0  0  0  0  0  0  0  0  0  0  0
   -9.6486    4.8284    0.0000 C   0  0  0  0  0  0  0  0  0  0  0  0
   -9.9091    6.3056    0.0000 C   0  0  0  0  0  0  0  0  0  0  0  0
  -11.3186    6.8186    0.0000 C   0  0  0  0  0  0  0  0  0  0  0  0
  -12.4677    5.8544    0.0000 C   0  0  0  0  0  0  0  0  0  0  0  0
  -12.2072    4.3772    0.0000 C   0  0  0  0  0  0  0  0  0  0  0  0
  -13.3563    3.4130    0.0000 F   0  0  0  0  0  0  0  0  0  0  0  0
  -10.7977    3.8642    0.0000 C   0  0  0  0  0  0  0  0  0  0  0  0
   -5.4200    3.2893    0.0000 C   0  0  0  0  0  0  0  0  0  0  0  0
   -4.0105    2.7762    0.0000 C   0  0  0  0  0  0  0  0  0  0  0  0
   -5.2500   -1.2990    0.0000 N   0  0  0  0  0  0  0  0  0  0  0  0
   -6.0000   -2.5981    0.0000 C   0  0  0  0  0  0  0  0  0  0  0  0
  1  2  2  0
  2  3  1  0
  3  4  1  0
  2  5  1  0
  5  6  2  0
  6  7  1  0
  7  8  2  0
  8  9  1  0
  9 10  1  0
 10 11  1  0
 11 12  2  0
 12 13  1  0
 13 14  2  0
 14 15  1  0
 15 16  2  0
 10 17  1  0
 17 18  1  0
 18 19  1  0
 19 20  1  0
 20 21  2  0
 20 22  1  0
 22 23  1  0
 23 24  2  0
 24 25  1  0
 25 26  2  0
 26 27  1  0
 27 28  1  0
 27 29  2  0
 19 30  1  0
 30 31  1  0
  8 32  1  0
 32 33  2  0
 33  5  1  0
 31 10  1  0
 16 11  1  0
 29 23  1  0
M  END
>  <molecule_chembl_id>  (947) 
CHEMBL3934237

>  <canonical_smiles>  (947) 
O=C(NO)c1cnc(NC2(c3ccccc3)CCN(C(=O)Nc3cccc(F)c3)CC2)nc1

>  <pchembl_value_mean>  (947) 
7.13

>  <document_chembl_id>  (947) 
CHEMBL3886590

$$$$

     RDKit          2D

 34 36  0  0  0  0  0  0  0  0999 V2000
   -7.5000  -10.3923    0.0000 C   0  0  0  0  0  0  0  0  0  0  0  0
   -6.0000  -10.3923    0.0000 C   0  0  0  0  0  0  0  0  0  0  0  0
   -5.2500   -9.0933    0.0000 C   0  0  0  0  0  0  0  0  0  0  0  0
   -6.0000   -7.7942    0.0000 O   0  0  0  0  0  0  0  0  0  0  0  0
   -3.7500   -9.0933    0.0000 C   0  0  0  0  0  0  0  0  0  0  0  0
   -3.0000   -7.7942    0.0000 C   0  0  0  0  0  0  0  0  0  0  0  0
   -1.5000   -7.7942    0.0000 C   0  0  0  0  0  0  0  0  0  0  0  0
   -0.7500   -6.4952    0.0000 C   0  0  0  0  0  0  0  0  0  0  0  0
    0.7500   -6.4952    0.0000 C   0  0  0  0  0  0  0  0  0  0  0  0
    1.5000   -5.1962    0.0000 C   0  0  0  0  0  0  0  0  0  0  0  0
    0.7500   -3.8971    0.0000 N   0  0  0  0  0  0  0  0  0  0  0  0
    1.5000   -2.5981    0.0000 C   0  0  0  0  0  0  0  0  0  0  0  0
    3.0000   -2.5981    0.0000 O   0  0  0  0  0  0  0  0  0  0  0  0
    0.7500   -1.2990    0.0000 C   0  0  0  0  0  0  0  0  0  0  0  0
    1.5000    0.0000    0.0000 C   0  0  0  0  0  0  0  0  0  0  0  0
    0.7500    1.2990    0.0000 C   0  0  0  0  0  0  0  0  0  0  0  0
   -0.7500    1.2990    0.0000 O   0  0  0  0  0  0  0  0  0  0  0  0
   -1.5000    0.0000    0.0000 C   0  0  0  0  0  0  0  0  0  0  0  0
   -0.7500   -1.2990    0.0000 C   0  0  0  0  0  0  0  0  0  0  0  0
    3.0000   -5.1962    0.0000 C   0  0  0  0  0  0  0  0  0  0  0  0
    3.8817   -3.9826    0.0000 N   0  0  0  0  0  0  0  0  0  0  0  0
    5.3083   -4.4462    0.0000 C   0  0  0  0  0  0  0  0  0  0  0  0
    6.5218   -3.5645    0.0000 C   0  0  0  0  0  0  0  0  0  0  0  0
    7.8921   -4.1746    0.0000 C   0  0  0  0  0  0  0  0  0  0  0  0
    9.1056   -3.2929    0.0000 C   0  0  0  0  0  0  0  0  0  0  0  0
    8.9488   -1.8011    0.0000 C   0  0  0  0  0  0  0  0  0  0  0  0
   10.1624   -0.9194    0.0000 F   0  0  0  0  0  0  0  0  0  0  0  0
    7.5785   -1.1910    0.0000 C   0  0  0  0  0  0  0  0  0  0  0  0
    6.3650   -2.0727    0.0000 C   0  0  0  0  0  0  0  0  0  0  0  0
    5.3083   -5.9462    0.0000 N   0  0  0  0  0  0  0  0  0  0  0  0
    3.8817   -6.4097    0.0000 C   0  0  0  0  0  0  0  0  0  0  0  0
    3.4182   -7.8363    0.0000 C   0  0  0  0  0  0  0  0  0  0  0  0
    1.9509   -8.1481    0.0000 N   0  0  0  0  0  0  0  0  0  0  0  0
    4.4218   -8.9510    0.0000 O   0  0  0  0  0  0  0  0  0  0  0  0
  1  2  1  0
  2  3  1  0
  3  4  2  0
  3  5  1  0
  5  6  1  0
  6  7  1  0
  7  8  1  0
  8  9  1  0
  9 10  1  0
 10 11  1  0
 11 12  1  0
 12 13  2  0
 12 14  1  0
 14 15  1  0
 15 16  1  0
 16 17  1  0
 17 18  1  0
 18 19  1  0
 10 20  1  0
 20 21  1  0
 21 22  1  0
 22 23  1  0
 23 24  2  0
 24 25  1  0
 25 26  2  0
 26 27  1  0
 26 28  1  0
 28 29  2  0
 22 30  2  0
 30 31  1  0
 31 32  1  0
 32 33  1  0
 32 34  2  0
 19 14  1  0
 31 20  2  0
 29 23  1  0
M  END
>  <molecule_chembl_id>  (948) 
CHEMBL4796175

>  <canonical_smiles>  (948) 
CCC(=O)CCCCCC(NC(=O)C1CCOCC1)c1[nH]c(-c2ccc(F)cc2)nc1C(N)=O

>  <pchembl_value_mean>  (948) 
7.13

>  <document_chembl_id>  (948) 
CHEMBL4665726

$$$$

     RDKit          2D

 21 22  0  0  0  0  0  0  0  0999 V2000
    5.8875   -3.9505    0.0000 O   0  0  0  0  0  0  0  0  0  0  0  0
    4.6740   -4.8322    0.0000 C   0  0  0  0  0  0  0  0  0  0  0  0
    4.8308   -6.3240    0.0000 N   0  0  0  0  0  0  0  0  0  0  0  0
    6.2011   -6.9341    0.0000 C   0  0  0  0  0  0  0  0  0  0  0  0
    6.3579   -8.4259    0.0000 C   0  0  0  0  0  0  0  0  0  0  0  0
    7.7282   -9.0360    0.0000 C   0  0  0  0  0  0  0  0  0  0  0  0
    7.8850  -10.5278    0.0000 C   0  0  0  0  0  0  0  0  0  0  0  0
    9.2553  -11.1379    0.0000 C   0  0  0  0  0  0  0  0  0  0  0  0
    9.4121  -12.6296    0.0000 C   0  0  0  0  0  0  0  0  0  0  0  0
   10.7824  -13.2397    0.0000 S   0  0  0  0  0  0  0  0  0  0  0  0
    3.3037   -4.2221    0.0000 C   0  0  0  0  0  0  0  0  0  0  0  0
    2.9918   -2.7549    0.0000 C   0  0  0  0  0  0  0  0  0  0  0  0
    1.5000   -2.5981    0.0000 C   0  0  0  0  0  0  0  0  0  0  0  0
    0.7500   -1.2990    0.0000 C   0  0  0  0  0  0  0  0  0  0  0  0
    1.5000    0.0000    0.0000 C   0  0  0  0  0  0  0  0  0  0  0  0
    0.7500    1.2990    0.0000 C   0  0  0  0  0  0  0  0  0  0  0  0
   -0.7500    1.2990    0.0000 N   0  0  0  0  0  0  0  0  0  0  0  0
   -1.5000    0.0000    0.0000 C   0  0  0  0  0  0  0  0  0  0  0  0
   -0.7500   -1.2990    0.0000 C   0  0  0  0  0  0  0  0  0  0  0  0
    0.8899   -3.9684    0.0000 N   0  0  0  0  0  0  0  0  0  0  0  0
    2.0046   -4.9721    0.0000 N   0  0  0  0  0  0  0  0  0  0  0  0
  1  2  2  0
  2  3  1  0
  3  4  1  0
  4  5  1  0
  5  6  1  0
  6  7  1  0
  7  8  1  0
  8  9  1  0
  9 10  1  0
  2 11  1  0
 11 12  2  0
 12 13  1  0
 13 14  1  0
 14 15  2  0
 15 16  1  0
 16 17  2  0
 17 18  1  0
 18 19  2  0
 13 20  2  0
 20 21  1  0
 21 11  1  0
 19 14  1  0
M  END
>  <molecule_chembl_id>  (949) 
CHEMBL3759562

>  <canonical_smiles>  (949) 
O=C(NCCCCCCS)c1cc(-c2ccncc2)n[nH]1

>  <pchembl_value_mean>  (949) 
7.14

>  <document_chembl_id>  (949) 
CHEMBL3758091

$$$$

     RDKit          2D

 34 37  0  0  0  0  0  0  0  0999 V2000
    3.0000    0.0000    0.0000 N   0  0  0  0  0  0  0  0  0  0  0  0
    1.5000    0.0000    0.0000 C   0  0  0  0  0  0  0  0  0  0  0  0
    0.7500   -1.2990    0.0000 C   0  0  0  0  0  0  0  0  0  0  0  0
   -0.7500   -1.2990    0.0000 C   0  0  0  0  0  0  0  0  0  0  0  0
   -1.5000    0.0000    0.0000 C   0  0  0  0  0  0  0  0  0  0  0  0
   -3.0000    0.0000    0.0000 C   0  0  0  0  0  0  0  0  0  0  0  0
   -3.7500    1.2990    0.0000 C   0  0  0  0  0  0  0  0  0  0  0  0
   -5.2500    1.2990    0.0000 C   0  0  0  0  0  0  0  0  0  0  0  0
   -6.0000    0.0000    0.0000 C   0  0  0  0  0  0  0  0  0  0  0  0
   -5.2500   -1.2990    0.0000 C   0  0  0  0  0  0  0  0  0  0  0  0
   -3.7500   -1.2990    0.0000 C   0  0  0  0  0  0  0  0  0  0  0  0
   -0.7500    1.2990    0.0000 C   0  0  0  0  0  0  0  0  0  0  0  0
    0.7500    1.2990    0.0000 C   0  0  0  0  0  0  0  0  0  0  0  0
    1.5000    2.5981    0.0000 N   0  0  0  0  0  0  0  0  0  0  0  0
    0.7500    3.8971    0.0000 C   0  0  0  0  0  0  0  0  0  0  0  0
   -0.7500    3.8971    0.0000 O   0  0  0  0  0  0  0  0  0  0  0  0
    1.5000    5.1962    0.0000 C   0  0  0  0  0  0  0  0  0  0  0  0
    3.0000    5.1962    0.0000 C   0  0  0  0  0  0  0  0  0  0  0  0
    3.7500    6.4952    0.0000 C   0  0  0  0  0  0  0  0  0  0  0  0
    3.0000    7.7942    0.0000 C   0  0  0  0  0  0  0  0  0  0  0  0
    3.7500    9.0933    0.0000 C   0  0  0  0  0  0  0  0  0  0  0  0
    5.2500    9.0933    0.0000 N   0  0  0  0  0  0  0  0  0  0  0  0
    6.0000   10.3923    0.0000 C   0  0  0  0  0  0  0  0  0  0  0  0
    5.2500   11.6913    0.0000 O   0  0  0  0  0  0  0  0  0  0  0  0
    7.5000   10.3923    0.0000 O   0  0  0  0  0  0  0  0  0  0  0  0
    8.2500   11.6913    0.0000 C   0  0  0  0  0  0  0  0  0  0  0  0
    9.7500   11.6913    0.0000 C   0  0  0  0  0  0  0  0  0  0  0  0
   10.5000   10.3923    0.0000 C   0  0  0  0  0  0  0  0  0  0  0  0
   12.0000   10.3923    0.0000 C   0  0  0  0  0  0  0  0  0  0  0  0
   12.7500   11.6913    0.0000 C   0  0  0  0  0  0  0  0  0  0  0  0
   12.0000   12.9904    0.0000 N   0  0  0  0  0  0  0  0  0  0  0  0
   10.5000   12.9904    0.0000 C   0  0  0  0  0  0  0  0  0  0  0  0
    1.5000    7.7942    0.0000 C   0  0  0  0  0  0  0  0  0  0  0  0
    0.7500    6.4952    0.0000 C   0  0  0  0  0  0  0  0  0  0  0  0
  1  2  1  0
  2  3  2  0
  3  4  1  0
  4  5  2  0
  5  6  1  0
  6  7  2  0
  7  8  1  0
  8  9  2  0
  9 10  1  0
 10 11  2  0
  5 12  1  0
 12 13  2  0
 13 14  1  0
 14 15  1  0
 15 16  2  0
 15 17  1  0
 17 18  2  0
 18 19  1  0
 19 20  2  0
 20 21  1  0
 21 22  1  0
 22 23  1  0
 23 24  2  0
 23 25  1  0
 25 26  1  0
 26 27  1  0
 27 28  2  0
 28 29  1  0
 29 30  2  0
 30 31  1  0
 31 32  2  0
 20 33  1  0
 33 34  2  0
 13  2  1  0
 34 17  1  0
 11  6  1  0
 32 27  1  0
M  END
>  <molecule_chembl_id>  (950) 
CHEMBL253868

>  <canonical_smiles>  (950) 
Nc1ccc(-c2ccccc2)cc1NC(=O)c1ccc(CNC(=O)OCc2cccnc2)cc1

>  <pchembl_value_mean>  (950) 
7.14

>  <document_chembl_id>  (950) 
CHEMBL1140803

$$$$

     RDKit          2D

 25 27  0  0  0  0  0  0  0  0999 V2000
    3.0000    0.0000    0.0000 C   0  0  0  0  0  0  0  0  0  0  0  0
    1.5000    0.0000    0.0000 C   0  0  0  0  0  0  0  0  0  0  0  0
    0.7500   -1.2990    0.0000 C   0  0  0  0  0  0  0  0  0  0  0  0
   -0.7500   -1.2990    0.0000 C   0  0  0  0  0  0  0  0  0  0  0  0
   -1.5000   -2.5981    0.0000 C   0  0  0  0  0  0  0  0  0  0  0  0
   -2.2500   -3.8971    0.0000 F   0  0  0  0  0  0  0  0  0  0  0  0
   -2.7990   -1.8481    0.0000 F   0  0  0  0  0  0  0  0  0  0  0  0
   -0.2010   -3.3481    0.0000 F   0  0  0  0  0  0  0  0  0  0  0  0
   -1.5000    0.0000    0.0000 C   0  0  0  0  0  0  0  0  0  0  0  0
   -0.7500    1.2990    0.0000 C   0  0  0  0  0  0  0  0  0  0  0  0
   -1.5000    2.5981    0.0000 C   0  0  0  0  0  0  0  0  0  0  0  0
   -0.3509    3.5623    0.0000 N   0  0  0  0  0  0  0  0  0  0  0  0
   -0.6114    5.0395    0.0000 C   0  0  0  0  0  0  0  0  0  0  0  0
    0.5377    6.0037    0.0000 N   0  0  0  0  0  0  0  0  0  0  0  0
    0.2772    7.4809    0.0000 C   0  0  0  0  0  0  0  0  0  0  0  0
   -1.1324    7.9939    0.0000 C   0  0  0  0  0  0  0  0  0  0  0  0
   -1.3928    9.4711    0.0000 C   0  0  0  0  0  0  0  0  0  0  0  0
   -2.8024    9.9841    0.0000 O   0  0  0  0  0  0  0  0  0  0  0  0
   -0.2438   10.4353    0.0000 N   0  0  0  0  0  0  0  0  0  0  0  0
   -0.5042   11.9125    0.0000 O   0  0  0  0  0  0  0  0  0  0  0  0
   -2.2814    7.0297    0.0000 C   0  0  0  0  0  0  0  0  0  0  0  0
   -2.0209    5.5525    0.0000 N   0  0  0  0  0  0  0  0  0  0  0  0
   -2.6491    3.5623    0.0000 C   0  0  0  0  0  0  0  0  0  0  0  0
   -2.9095    2.0850    0.0000 C   0  0  0  0  0  0  0  0  0  0  0  0
    0.7500    1.2990    0.0000 C   0  0  0  0  0  0  0  0  0  0  0  0
  1  2  1  0
  2  3  2  0
  3  4  1  0
  4  5  1  0
  5  6  1  0
  5  7  1  0
  5  8  1  0
  4  9  2  0
  9 10  1  0
 10 11  1  0
 11 12  1  0
 12 13  1  0
 13 14  2  0
 14 15  1  0
 15 16  2  0
 16 17  1  0
 17 18  2  0
 17 19  1  0
 19 20  1  0
 16 21  1  0
 21 22  2  0
 11 23  1  0
 23 24  1  0
 10 25  2  0
 25  2  1  0
 24 11  1  0
 22 13  1  0
M  END
>  <molecule_chembl_id>  (951) 
CHEMBL3656016

>  <canonical_smiles>  (951) 
Cc1cc(C(F)(F)F)cc(C2(Nc3ncc(C(=O)NO)cn3)CC2)c1

>  <pchembl_value_mean>  (951) 
7.14

>  <document_chembl_id>  (951) 
CHEMBL3639071

$$$$

     RDKit          2D

 32 34  0  0  0  0  0  0  0  0999 V2000
   12.7500   -3.8971    0.0000 O   0  0  0  0  0  0  0  0  0  0  0  0
   12.0000   -5.1962    0.0000 C   0  0  0  0  0  0  0  0  0  0  0  0
   10.5000   -5.1962    0.0000 C   0  0  0  0  0  0  0  0  0  0  0  0
    9.7500   -3.8971    0.0000 C   0  0  0  0  0  0  0  0  0  0  0  0
    8.2500   -3.8971    0.0000 C   0  0  0  0  0  0  0  0  0  0  0  0
    7.5000   -2.5981    0.0000 C   0  0  0  0  0  0  0  0  0  0  0  0
    6.0000   -2.5981    0.0000 C   0  0  0  0  0  0  0  0  0  0  0  0
    5.2500   -1.2990    0.0000 C   0  0  0  0  0  0  0  0  0  0  0  0
    3.7500   -1.2990    0.0000 N   0  0  0  0  0  0  0  0  0  0  0  0
    3.0000    0.0000    0.0000 C   0  0  0  0  0  0  0  0  0  0  0  0
    3.7500    1.2990    0.0000 O   0  0  0  0  0  0  0  0  0  0  0  0
    1.5000    0.0000    0.0000 C   0  0  0  0  0  0  0  0  0  0  0  0
    0.7500   -1.2990    0.0000 C   0  0  0  0  0  0  0  0  0  0  0  0
   -0.7500   -1.2990    0.0000 N   0  0  0  0  0  0  0  0  0  0  0  0
   -1.5000    0.0000    0.0000 C   0  0  0  0  0  0  0  0  0  0  0  0
   -3.0000    0.0000    0.0000 N   0  0  0  0  0  0  0  0  0  0  0  0
   -3.7500    1.2990    0.0000 C   0  0  0  0  0  0  0  0  0  0  0  0
   -3.0000    2.5981    0.0000 C   0  0  0  0  0  0  0  0  0  0  0  0
   -3.7500    3.8971    0.0000 C   0  0  0  0  0  0  0  0  0  0  0  0
   -5.2500    3.8971    0.0000 C   0  0  0  0  0  0  0  0  0  0  0  0
   -6.0000    2.5981    0.0000 C   0  0  0  0  0  0  0  0  0  0  0  0
   -5.2500    1.2990    0.0000 C   0  0  0  0  0  0  0  0  0  0  0  0
   -3.7500   -1.2990    0.0000 C   0  0  0  0  0  0  0  0  0  0  0  0
   -5.2500   -1.2990    0.0000 C   0  0  0  0  0  0  0  0  0  0  0  0
   -6.0000   -2.5981    0.0000 C   0  0  0  0  0  0  0  0  0  0  0  0
   -5.2500   -3.8971    0.0000 C   0  0  0  0  0  0  0  0  0  0  0  0
   -3.7500   -3.8971    0.0000 C   0  0  0  0  0  0  0  0  0  0  0  0
   -3.0000   -2.5981    0.0000 C   0  0  0  0  0  0  0  0  0  0  0  0
   -0.7500    1.2990    0.0000 N   0  0  0  0  0  0  0  0  0  0  0  0
    0.7500    1.2990    0.0000 C   0  0  0  0  0  0  0  0  0  0  0  0
   12.7500   -6.4952    0.0000 N   0  0  0  0  0  0  0  0  0  0  0  0
   14.2500   -6.4952    0.0000 O   0  0  0  0  0  0  0  0  0  0  0  0
  1  2  2  0
  2  3  1  0
  3  4  1  0
  4  5  1  0
  5  6  1  0
  6  7  1  0
  7  8  1  0
  8  9  1  0
  9 10  1  0
 10 11  2  0
 10 12  1  0
 12 13  2  0
 13 14  1  0
 14 15  2  0
 15 16  1  0
 16 17  1  0
 17 18  2  0
 18 19  1  0
 19 20  2  0
 20 21  1  0
 21 22  2  0
 16 23  1  0
 23 24  2  0
 24 25  1  0
 25 26  2  0
 26 27  1  0
 27 28  2  0
 15 29  1  0
 29 30  2  0
  2 31  1  0
 31 32  1  0
 30 12  1  0
 22 17  1  0
 28 23  1  0
M  END
>  <molecule_chembl_id>  (952) 
CHEMBL2364628

>  <canonical_smiles>  (952) 
O=C(CCCCCCNC(=O)c1cnc(N(c2ccccc2)c2ccccc2)nc1)NO

>  <pchembl_value_mean>  (952) 
7.147692

>  <document_chembl_id>  (952) 
CHEMBL2417402

$$$$

     RDKit          2D

 19 20  0  0  0  0  0  0  0  0999 V2000
    3.7500    1.2990    0.0000 O   0  0  0  0  0  0  0  0  0  0  0  0
    3.0000    0.0000    0.0000 C   0  0  0  0  0  0  0  0  0  0  0  0
    3.7500   -1.2990    0.0000 N   0  0  0  0  0  0  0  0  0  0  0  0
    5.2500   -1.2990    0.0000 O   0  0  0  0  0  0  0  0  0  0  0  0
    1.5000    0.0000    0.0000 C   0  0  0  0  0  0  0  0  0  0  0  0
    0.7500   -1.2990    0.0000 C   0  0  0  0  0  0  0  0  0  0  0  0
   -0.7500   -1.2990    0.0000 N   0  0  0  0  0  0  0  0  0  0  0  0
   -1.5000    0.0000    0.0000 C   0  0  0  0  0  0  0  0  0  0  0  0
   -3.0000    0.0000    0.0000 N   0  0  0  0  0  0  0  0  0  0  0  0
   -3.7500    1.2990    0.0000 C   0  0  0  0  0  0  0  0  0  0  0  0
   -5.2500    1.2990    0.0000 C   0  0  0  0  0  0  0  0  0  0  0  0
   -6.0000    2.5981    0.0000 C   0  0  0  0  0  0  0  0  0  0  0  0
   -7.5000    2.5981    0.0000 C   0  0  0  0  0  0  0  0  0  0  0  0
   -8.2500    1.2990    0.0000 C   0  0  0  0  0  0  0  0  0  0  0  0
   -9.7500    1.2990    0.0000 Cl  0  0  0  0  0  0  0  0  0  0  0  0
   -7.5000    0.0000    0.0000 C   0  0  0  0  0  0  0  0  0  0  0  0
   -6.0000    0.0000    0.0000 C   0  0  0  0  0  0  0  0  0  0  0  0
   -0.7500    1.2990    0.0000 N   0  0  0  0  0  0  0  0  0  0  0  0
    0.7500    1.2990    0.0000 C   0  0  0  0  0  0  0  0  0  0  0  0
  1  2  2  0
  2  3  1  0
  3  4  1  0
  2  5  1  0
  5  6  2  0
  6  7  1  0
  7  8  2  0
  8  9  1  0
  9 10  1  0
 10 11  1  0
 11 12  2  0
 12 13  1  0
 13 14  2  0
 14 15  1  0
 14 16  1  0
 16 17  2  0
  8 18  1  0
 18 19  2  0
 19  5  1  0
 17 11  1  0
M  END
>  <molecule_chembl_id>  (953) 
CHEMBL3655919

>  <canonical_smiles>  (953) 
O=C(NO)c1cnc(NCc2ccc(Cl)cc2)nc1

>  <pchembl_value_mean>  (953) 
7.15

>  <document_chembl_id>  (953) 
CHEMBL3639071

$$$$

     RDKit          2D

 31 35  0  0  0  0  0  0  0  0999 V2000
    2.6353   12.3143    0.0000 N   0  0  0  0  0  0  0  0  0  0  0  0
    4.1025   12.6262    0.0000 C   0  0  0  0  0  0  0  0  0  0  0  0
    4.5660   14.0528    0.0000 C   0  0  0  0  0  0  0  0  0  0  0  0
    6.0332   14.3647    0.0000 C   0  0  0  0  0  0  0  0  0  0  0  0
    7.0369   13.2499    0.0000 C   0  0  0  0  0  0  0  0  0  0  0  0
    8.5042   13.5618    0.0000 C   0  0  0  0  0  0  0  0  0  0  0  0
    9.1143   14.9321    0.0000 C   0  0  0  0  0  0  0  0  0  0  0  0
   10.6061   14.7753    0.0000 C   0  0  0  0  0  0  0  0  0  0  0  0
   10.9179   13.3081    0.0000 S   0  0  0  0  0  0  0  0  0  0  0  0
    9.6189   12.5581    0.0000 C   0  0  0  0  0  0  0  0  0  0  0  0
    6.5734   11.8234    0.0000 C   0  0  0  0  0  0  0  0  0  0  0  0
    5.1062   11.5115    0.0000 C   0  0  0  0  0  0  0  0  0  0  0  0
    4.6427   10.0849    0.0000 N   0  0  0  0  0  0  0  0  0  0  0  0
    3.1755    9.7730    0.0000 C   0  0  0  0  0  0  0  0  0  0  0  0
    2.1718   10.8878    0.0000 O   0  0  0  0  0  0  0  0  0  0  0  0
    2.7119    8.3464    0.0000 C   0  0  0  0  0  0  0  0  0  0  0  0
    1.2447    8.0346    0.0000 C   0  0  0  0  0  0  0  0  0  0  0  0
    0.7812    6.6080    0.0000 C   0  0  0  0  0  0  0  0  0  0  0  0
    1.7849    5.4933    0.0000 C   0  0  0  0  0  0  0  0  0  0  0  0
    1.3213    4.0667    0.0000 N   0  0  0  0  0  0  0  0  0  0  0  0
   -0.1459    3.7548    0.0000 C   0  0  0  0  0  0  0  0  0  0  0  0
   -0.6094    2.3282    0.0000 C   0  0  0  0  0  0  0  0  0  0  0  0
    0.3943    1.2135    0.0000 C   0  0  0  0  0  0  0  0  0  0  0  0
    1.2760    0.0000    0.0000 C   0  0  0  0  0  0  0  0  0  0  0  0
    0.3943   -1.2135    0.0000 C   0  0  0  0  0  0  0  0  0  0  0  0
   -1.0323   -0.7500    0.0000 N   0  0  0  0  0  0  0  0  0  0  0  0
   -1.0323    0.7500    0.0000 C   0  0  0  0  0  0  0  0  0  0  0  0
    1.8615    1.5254    0.0000 C   0  0  0  0  0  0  0  0  0  0  0  0
    2.3250    2.9520    0.0000 C   0  0  0  0  0  0  0  0  0  0  0  0
    3.2521    5.8051    0.0000 N   0  0  0  0  0  0  0  0  0  0  0  0
    3.7156    7.2317    0.0000 C   0  0  0  0  0  0  0  0  0  0  0  0
  1  2  1  0
  2  3  2  0
  3  4  1  0
  4  5  2  0
  5  6  1  0
  6  7  1  0
  7  8  2  0
  8  9  1  0
  9 10  1  0
  5 11  1  0
 11 12  2  0
 12 13  1  0
 13 14  1  0
 14 15  2  0
 14 16  1  0
 16 17  2  0
 17 18  1  0
 18 19  2  0
 19 20  1  0
 20 21  1  0
 21 22  1  0
 22 23  1  0
 23 24  1  0
 24 25  1  0
 25 26  1  0
 26 27  1  0
 23 28  1  0
 28 29  1  0
 19 30  1  0
 30 31  2  0
 12  2  1  0
 31 16  1  0
 10  6  2  0
 29 20  1  0
 27 23  1  0
M  END
>  <molecule_chembl_id>  (954) 
CHEMBL511797

>  <canonical_smiles>  (954) 
Nc1ccc(-c2ccsc2)cc1NC(=O)c1ccc(N2CCC3(CCNC3)CC2)nc1

>  <pchembl_value_mean>  (954) 
7.15

>  <document_chembl_id>  (954) 
CHEMBL1152282

$$$$

     RDKit          2D

 29 32  0  0  0  0  0  0  0  0999 V2000
    3.0000    0.0000    0.0000 N   0  0  0  0  0  0  0  0  0  0  0  0
    1.5000    0.0000    0.0000 C   0  0  0  0  0  0  0  0  0  0  0  0
    0.7500   -1.2990    0.0000 C   0  0  0  0  0  0  0  0  0  0  0  0
   -0.7500   -1.2990    0.0000 C   0  0  0  0  0  0  0  0  0  0  0  0
   -1.5000    0.0000    0.0000 C   0  0  0  0  0  0  0  0  0  0  0  0
   -0.7500    1.2990    0.0000 C   0  0  0  0  0  0  0  0  0  0  0  0
    0.7500    1.2990    0.0000 C   0  0  0  0  0  0  0  0  0  0  0  0
    1.5000    2.5981    0.0000 N   0  0  0  0  0  0  0  0  0  0  0  0
    0.7500    3.8971    0.0000 C   0  0  0  0  0  0  0  0  0  0  0  0
   -0.7500    3.8971    0.0000 O   0  0  0  0  0  0  0  0  0  0  0  0
    1.5000    5.1962    0.0000 C   0  0  0  0  0  0  0  0  0  0  0  0
    3.0000    5.1962    0.0000 C   0  0  0  0  0  0  0  0  0  0  0  0
    3.7500    6.4952    0.0000 C   0  0  0  0  0  0  0  0  0  0  0  0
    3.0000    7.7942    0.0000 C   0  0  0  0  0  0  0  0  0  0  0  0
    3.7500    9.0933    0.0000 C   0  0  0  0  0  0  0  0  0  0  0  0
    5.2500    9.0933    0.0000 N   0  0  0  0  0  0  0  0  0  0  0  0
    6.0000   10.3923    0.0000 C   0  0  0  0  0  0  0  0  0  0  0  0
    5.3899   11.7626    0.0000 N   0  0  0  0  0  0  0  0  0  0  0  0
    6.5046   12.7663    0.0000 C   0  0  0  0  0  0  0  0  0  0  0  0
    6.3478   14.2581    0.0000 C   0  0  0  0  0  0  0  0  0  0  0  0
    7.5613   15.1398    0.0000 C   0  0  0  0  0  0  0  0  0  0  0  0
    7.4046   16.6316    0.0000 C   0  0  0  0  0  0  0  0  0  0  0  0
    6.0342   17.2417    0.0000 C   0  0  0  0  0  0  0  0  0  0  0  0
    4.8207   16.3600    0.0000 C   0  0  0  0  0  0  0  0  0  0  0  0
    4.9775   14.8682    0.0000 C   0  0  0  0  0  0  0  0  0  0  0  0
    7.8037   12.0163    0.0000 C   0  0  0  0  0  0  0  0  0  0  0  0
    7.4918   10.5491    0.0000 S   0  0  0  0  0  0  0  0  0  0  0  0
    1.5000    7.7942    0.0000 C   0  0  0  0  0  0  0  0  0  0  0  0
    0.7500    6.4952    0.0000 C   0  0  0  0  0  0  0  0  0  0  0  0
  1  2  1  0
  2  3  2  0
  3  4  1  0
  4  5  2  0
  5  6  1  0
  6  7  2  0
  7  8  1  0
  8  9  1  0
  9 10  2  0
  9 11  1  0
 11 12  2  0
 12 13  1  0
 13 14  2  0
 14 15  1  0
 15 16  1  0
 16 17  1  0
 17 18  2  0
 18 19  1  0
 19 20  1  0
 20 21  2  0
 21 22  1  0
 22 23  2  0
 23 24  1  0
 24 25  2  0
 19 26  1  0
 26 27  1  0
 14 28  1  0
 28 29  2  0
  7  2  1  0
 29 11  1  0
 27 17  1  0
 25 20  1  0
M  END
>  <molecule_chembl_id>  (955) 
CHEMBL2407718

>  <canonical_smiles>  (955) 
Nc1ccccc1NC(=O)c1ccc(CNC2=NC(c3ccccc3)CS2)cc1

>  <pchembl_value_mean>  (955) 
7.16

>  <document_chembl_id>  (955) 
CHEMBL2407081

$$$$

     RDKit          2D

 26 27  0  0  0  0  0  0  0  0999 V2000
    9.7500   -3.8971    0.0000 C   0  0  0  0  0  0  0  0  0  0  0  0
    8.2500   -3.8971    0.0000 C   0  0  0  0  0  0  0  0  0  0  0  0
    7.5000   -2.5981    0.0000 C   0  0  0  0  0  0  0  0  0  0  0  0
    6.0000   -2.5981    0.0000 C   0  0  0  0  0  0  0  0  0  0  0  0
    5.2500   -1.2990    0.0000 N   0  0  0  0  0  0  0  0  0  0  0  0
    3.7500   -1.2990    0.0000 N   0  0  0  0  0  0  0  0  0  0  0  0
    3.0000    0.0000    0.0000 C   0  0  0  0  0  0  0  0  0  0  0  0
    3.7500    1.2990    0.0000 O   0  0  0  0  0  0  0  0  0  0  0  0
    1.5000    0.0000    0.0000 C   0  0  0  0  0  0  0  0  0  0  0  0
    0.7500   -1.2990    0.0000 C   0  0  0  0  0  0  0  0  0  0  0  0
   -0.7500   -1.2990    0.0000 C   0  0  0  0  0  0  0  0  0  0  0  0
   -1.5000    0.0000    0.0000 C   0  0  0  0  0  0  0  0  0  0  0  0
   -3.0000    0.0000    0.0000 C   0  0  0  0  0  0  0  0  0  0  0  0
   -3.7500    1.2990    0.0000 N   0  0  0  0  0  0  0  0  0  0  0  0
   -5.2500    1.2990    0.0000 C   0  0  0  0  0  0  0  0  0  0  0  0
   -6.0000    0.0000    0.0000 O   0  0  0  0  0  0  0  0  0  0  0  0
   -6.0000    2.5981    0.0000 C   0  0  0  0  0  0  0  0  0  0  0  0
   -7.5000    2.5981    0.0000 C   0  0  0  0  0  0  0  0  0  0  0  0
   -8.2500    3.8971    0.0000 C   0  0  0  0  0  0  0  0  0  0  0  0
   -7.5000    5.1962    0.0000 C   0  0  0  0  0  0  0  0  0  0  0  0
   -8.2500    6.4952    0.0000 C   0  0  0  0  0  0  0  0  0  0  0  0
   -9.7500    6.4952    0.0000 C   0  0  0  0  0  0  0  0  0  0  0  0
  -10.5000    5.1962    0.0000 C   0  0  0  0  0  0  0  0  0  0  0  0
   -9.7500    3.8971    0.0000 C   0  0  0  0  0  0  0  0  0  0  0  0
   -0.7500    1.2990    0.0000 C   0  0  0  0  0  0  0  0  0  0  0  0
    0.7500    1.2990    0.0000 C   0  0  0  0  0  0  0  0  0  0  0  0
  1  2  1  0
  2  3  1  0
  3  4  1  0
  4  5  1  0
  5  6  1  0
  6  7  1  0
  7  8  2  0
  7  9  1  0
  9 10  2  0
 10 11  1  0
 11 12  2  0
 12 13  1  0
 13 14  1  0
 14 15  1  0
 15 16  2  0
 15 17  1  0
 17 18  2  3
 18 19  1  0
 19 20  2  0
 20 21  1  0
 21 22  2  0
 22 23  1  0
 23 24  2  0
 12 25  1  0
 25 26  2  0
 26  9  1  0
 24 19  1  0
M  END
>  <molecule_chembl_id>  (956) 
CHEMBL4757047

>  <canonical_smiles>  (956) 
CCCCNNC(=O)c1ccc(CNC(=O)C=Cc2ccccc2)cc1

>  <pchembl_value_mean>  (956) 
7.16

>  <document_chembl_id>  (956) 
CHEMBL4680089

$$$$

     RDKit          2D

 33 36  0  0  0  0  0  0  0  0999 V2000
    3.7500   -1.2990    0.0000 C   0  0  0  0  0  0  0  0  0  0  0  0
    3.0000    0.0000    0.0000 O   0  0  0  0  0  0  0  0  0  0  0  0
    1.5000    0.0000    0.0000 C   0  0  0  0  0  0  0  0  0  0  0  0
    0.7500   -1.2990    0.0000 C   0  0  0  0  0  0  0  0  0  0  0  0
   -0.7500   -1.2990    0.0000 C   0  0  0  0  0  0  0  0  0  0  0  0
   -1.5000    0.0000    0.0000 C   0  0  0  0  0  0  0  0  0  0  0  0
   -3.0000    0.0000    0.0000 N   0  0  0  0  0  0  0  0  0  0  0  0
   -3.7500    1.2990    0.0000 C   0  0  0  0  0  0  0  0  0  0  0  0
   -5.2500    1.2990    0.0000 C   0  0  0  0  0  0  0  0  0  0  0  0
   -6.0000    2.5981    0.0000 C   0  0  0  0  0  0  0  0  0  0  0  0
   -7.5000    2.5981    0.0000 C   0  0  0  0  0  0  0  0  0  0  0  0
   -8.2500    1.2990    0.0000 C   0  0  0  0  0  0  0  0  0  0  0  0
   -9.7500    1.2990    0.0000 C   0  0  0  0  0  0  0  0  0  0  0  0
  -10.5000    0.0000    0.0000 O   0  0  0  0  0  0  0  0  0  0  0  0
  -10.5000    2.5981    0.0000 N   0  0  0  0  0  0  0  0  0  0  0  0
  -12.0000    2.5981    0.0000 C   0  0  0  0  0  0  0  0  0  0  0  0
  -12.7500    3.8971    0.0000 C   0  0  0  0  0  0  0  0  0  0  0  0
  -14.2500    3.8971    0.0000 C   0  0  0  0  0  0  0  0  0  0  0  0
  -15.0000    5.1962    0.0000 C   0  0  0  0  0  0  0  0  0  0  0  0
  -16.4918    5.3529    0.0000 C   0  0  0  0  0  0  0  0  0  0  0  0
  -16.8037    6.8202    0.0000 C   0  0  0  0  0  0  0  0  0  0  0  0
  -15.5046    7.5702    0.0000 O   0  0  0  0  0  0  0  0  0  0  0  0
  -14.3899    6.5665    0.0000 C   0  0  0  0  0  0  0  0  0  0  0  0
  -15.0000    2.5981    0.0000 C   0  0  0  0  0  0  0  0  0  0  0  0
  -14.2500    1.2990    0.0000 C   0  0  0  0  0  0  0  0  0  0  0  0
  -12.7500    1.2990    0.0000 C   0  0  0  0  0  0  0  0  0  0  0  0
  -12.0000    0.0000    0.0000 N   0  0  0  0  0  0  0  0  0  0  0  0
   -7.5000    0.0000    0.0000 C   0  0  0  0  0  0  0  0  0  0  0  0
   -6.0000    0.0000    0.0000 C   0  0  0  0  0  0  0  0  0  0  0  0
   -0.7500    1.2990    0.0000 C   0  0  0  0  0  0  0  0  0  0  0  0
    0.7500    1.2990    0.0000 C   0  0  0  0  0  0  0  0  0  0  0  0
    1.5000    2.5981    0.0000 O   0  0  0  0  0  0  0  0  0  0  0  0
    0.7500    3.8971    0.0000 C   0  0  0  0  0  0  0  0  0  0  0  0
  1  2  1  0
  2  3  1  0
  3  4  2  0
  4  5  1  0
  5  6  2  0
  6  7  1  0
  7  8  1  0
  8  9  1  0
  9 10  2  0
 10 11  1  0
 11 12  2  0
 12 13  1  0
 13 14  2  0
 13 15  1  0
 15 16  1  0
 16 17  2  0
 17 18  1  0
 18 19  1  0
 19 20  1  0
 20 21  2  0
 21 22  1  0
 22 23  1  0
 18 24  2  0
 24 25  1  0
 25 26  2  0
 26 27  1  0
 12 28  1  0
 28 29  2  0
  6 30  1  0
 30 31  2  0
 31 32  1  0
 32 33  1  0
 31  3  1  0
 29  9  1  0
 26 16  1  0
 23 19  2  0
M  END
>  <molecule_chembl_id>  (957) 
CHEMBL235192

>  <canonical_smiles>  (957) 
COc1ccc(NCc2ccc(C(=O)Nc3cc(-c4ccoc4)ccc3N)cc2)cc1OC

>  <pchembl_value_mean>  (957) 
7.16

>  <document_chembl_id>  (957) 
CHEMBL1138236

$$$$

     RDKit          2D

 35 37  0  0  0  0  0  0  0  0999 V2000
    1.5922    6.6948    0.0000 C   0  0  0  0  0  0  0  0  0  0  0  0
    0.1004    6.8516    0.0000 C   0  0  0  0  0  0  0  0  0  0  0  0
   -0.5097    8.2219    0.0000 C   0  0  0  0  0  0  0  0  0  0  0  0
   -0.7813    5.6380    0.0000 C   0  0  0  0  0  0  0  0  0  0  0  0
    0.2369    4.5365    0.0000 N   0  0  0  0  0  0  0  0  0  0  0  0
    0.7561    3.1293    0.0000 C   0  0  0  0  0  0  0  0  0  0  0  0
    2.2376    3.3639    0.0000 O   0  0  0  0  0  0  0  0  0  0  0  0
    0.3943    1.2135    0.0000 C   0  0  0  0  0  0  0  0  0  0  0  0
    0.4790    2.4256    0.0000 C   0  0  0  0  0  0  0  0  0  0  0  0
    1.2760    0.0000    0.0000 C   0  0  0  0  0  0  0  0  0  0  0  0
    0.3943   -1.2135    0.0000 S   0  0  0  0  0  0  0  0  0  0  0  0
   -1.0323   -0.7500    0.0000 C   0  0  0  0  0  0  0  0  0  0  0  0
   -1.0323    0.7500    0.0000 N   0  0  0  0  0  0  0  0  0  0  0  0
   -2.4396   -1.2692    0.0000 C   0  0  0  0  0  0  0  0  0  0  0  0
   -3.2233   -2.5481    0.0000 C   0  0  0  0  0  0  0  0  0  0  0  0
   -4.6819   -2.1980    0.0000 S   0  0  0  0  0  0  0  0  0  0  0  0
   -5.3006   -0.5823    0.0000 C   0  0  0  0  0  0  0  0  0  0  0  0
   -3.9384   -1.2103    0.0000 N   0  0  0  0  0  0  0  0  0  0  0  0
   -6.3188    0.5192    0.0000 C   0  0  0  0  0  0  0  0  0  0  0  0
   -6.8380    1.9265    0.0000 N   0  0  0  0  0  0  0  0  0  0  0  0
   -6.7791    3.4253    0.0000 C   0  0  0  0  0  0  0  0  0  0  0  0
   -8.2377    3.7755    0.0000 O   0  0  0  0  0  0  0  0  0  0  0  0
   -6.1511    4.7875    0.0000 C   0  0  0  0  0  0  0  0  0  0  0  0
   -5.0496    5.8057    0.0000 C   0  0  0  0  0  0  0  0  0  0  0  0
   -5.8334    7.0847    0.0000 C   0  0  0  0  0  0  0  0  0  0  0  0
   -5.1177    8.4029    0.0000 C   0  0  0  0  0  0  0  0  0  0  0  0
   -5.9014    9.6819    0.0000 C   0  0  0  0  0  0  0  0  0  0  0  0
   -5.1857   11.0001    0.0000 C   0  0  0  0  0  0  0  0  0  0  0  0
   -5.9694   12.2791    0.0000 C   0  0  0  0  0  0  0  0  0  0  0  0
   -7.4689   12.2398    0.0000 O   0  0  0  0  0  0  0  0  0  0  0  0
   -5.2537   13.5973    0.0000 N   0  0  0  0  0  0  0  0  0  0  0  0
   -6.0374   14.8763    0.0000 O   0  0  0  0  0  0  0  0  0  0  0  0
   -3.6424    6.3249    0.0000 O   0  0  0  0  0  0  0  0  0  0  0  0
   -2.1435    6.2660    0.0000 C   0  0  0  0  0  0  0  0  0  0  0  0
   -1.7933    7.7246    0.0000 O   0  0  0  0  0  0  0  0  0  0  0  0
  1  2  1  0
  2  3  1  0
  2  4  1  0
  4  5  1  0
  5  6  1  0
  6  7  2  0
  6  8  1  0
  8  9  1  0
  8 10  1  0
 10 11  1  0
 11 12  1  0
 12 13  2  0
 12 14  1  0
 14 15  2  0
 15 16  1  0
 16 17  1  0
 17 18  2  0
 17 19  1  0
 19 20  1  0
 20 21  1  0
 21 22  2  0
 21 23  1  0
 23 24  1  0
 24 25  1  0
 25 26  2  3
 26 27  1  0
 27 28  1  0
 28 29  1  0
 29 30  2  0
 29 31  1  0
 31 32  1  0
 24 33  1  0
 33 34  1  0
 34 35  2  0
 34  4  1  0
 13  8  1  0
 18 14  1  0
M  END
>  <molecule_chembl_id>  (958) 
CHEMBL4099942

>  <canonical_smiles>  (958) 
CC(C)C1NC(=O)C2(C)CSC(=N2)c2csc(n2)CNC(=O)CC(C=CCCC(=O)NO)OC1=O

>  <pchembl_value_mean>  (958) 
7.16

>  <document_chembl_id>  (958) 
CHEMBL4020727

$$$$

     RDKit          2D

 33 35  0  0  0  0  0  0  0  0999 V2000
   -4.0852   -9.6842    0.0000 C   0  0  0  0  0  0  0  0  0  0  0  0
   -2.6994   -9.1101    0.0000 C   0  0  0  0  0  0  0  0  0  0  0  0
   -1.5093  -10.0233    0.0000 C   0  0  0  0  0  0  0  0  0  0  0  0
   -2.5036   -7.6230    0.0000 C   0  0  0  0  0  0  0  0  0  0  0  0
   -1.0068   -7.5249    0.0000 N   0  0  0  0  0  0  0  0  0  0  0  0
    0.3385   -6.8614    0.0000 C   0  0  0  0  0  0  0  0  0  0  0  0
    1.2517   -8.0515    0.0000 O   0  0  0  0  0  0  0  0  0  0  0  0
    1.3275   -5.7337    0.0000 C   0  0  0  0  0  0  0  0  0  0  0  0
    2.6266   -6.4837    0.0000 C   0  0  0  0  0  0  0  0  0  0  0  0
    2.8024   -5.4603    0.0000 C   0  0  0  0  0  0  0  0  0  0  0  0
    2.9982   -3.9732    0.0000 S   0  0  0  0  0  0  0  0  0  0  0  0
    1.7116   -2.8165    0.0000 C   0  0  0  0  0  0  0  0  0  0  0  0
    1.8097   -4.3133    0.0000 N   0  0  0  0  0  0  0  0  0  0  0  0
    0.7500   -1.2990    0.0000 C   0  0  0  0  0  0  0  0  0  0  0  0
    1.5000    0.0000    0.0000 C   0  0  0  0  0  0  0  0  0  0  0  0
    0.7500    1.2990    0.0000 C   0  0  0  0  0  0  0  0  0  0  0  0
   -0.7500    1.2990    0.0000 C   0  0  0  0  0  0  0  0  0  0  0  0
   -1.5000    0.0000    0.0000 C   0  0  0  0  0  0  0  0  0  0  0  0
   -0.7500   -1.2990    0.0000 N   0  0  0  0  0  0  0  0  0  0  0  0
   -2.9968   -0.0981    0.0000 C   0  0  0  0  0  0  0  0  0  0  0  0
   -4.3421   -0.7615    0.0000 N   0  0  0  0  0  0  0  0  0  0  0  0
   -5.3311   -1.8893    0.0000 C   0  0  0  0  0  0  0  0  0  0  0  0
   -6.6302   -1.1393    0.0000 O   0  0  0  0  0  0  0  0  0  0  0  0
   -5.8133   -3.3097    0.0000 C   0  0  0  0  0  0  0  0  0  0  0  0
   -5.7152   -4.8065    0.0000 C   0  0  0  0  0  0  0  0  0  0  0  0
   -7.1641   -5.1947    0.0000 C   0  0  0  0  0  0  0  0  0  0  0  0
   -8.2247   -4.1340    0.0000 C   0  0  0  0  0  0  0  0  0  0  0  0
   -9.6736   -4.5223    0.0000 C   0  0  0  0  0  0  0  0  0  0  0  0
  -10.7343   -3.4616    0.0000 C   0  0  0  0  0  0  0  0  0  0  0  0
  -12.1832   -3.8498    0.0000 S   0  0  0  0  0  0  0  0  0  0  0  0
   -5.0517   -6.1518    0.0000 N   0  0  0  0  0  0  0  0  0  0  0  0
   -3.9240   -7.1408    0.0000 C   0  0  0  0  0  0  0  0  0  0  0  0
   -4.6740   -8.4398    0.0000 O   0  0  0  0  0  0  0  0  0  0  0  0
  1  2  1  0
  2  3  1  0
  2  4  1  0
  4  5  1  0
  5  6  1  0
  6  7  2  0
  6  8  1  0
  8  9  1  0
  8 10  1  0
 10 11  1  0
 11 12  1  0
 12 13  2  0
 12 14  1  0
 14 15  1  0
 15 16  2  0
 16 17  1  0
 17 18  2  0
 18 19  1  0
 18 20  1  0
 20 21  1  0
 21 22  1  0
 22 23  2  0
 22 24  1  0
 24 25  1  0
 25 26  1  0
 26 27  2  3
 27 28  1  0
 28 29  1  0
 29 30  1  0
 25 31  1  0
 31 32  1  0
 32 33  2  0
 32  4  1  0
 13  8  1  0
 19 14  2  0
M  END
>  <molecule_chembl_id>  (959) 
CHEMBL3593413

>  <canonical_smiles>  (959) 
CC(C)C1NC(=O)C2(C)CSC(=N2)c2cccc(n2)CNC(=O)CC(C=CCCS)NC1=O

>  <pchembl_value_mean>  (959) 
7.16

>  <document_chembl_id>  (959) 
CHEMBL3593208

$$$$

     RDKit          2D

 38 42  0  0  0  0  0  0  0  0999 V2000
   -1.5342  -12.0455    0.0000 O   0  0  0  0  0  0  0  0  0  0  0  0
   -0.3207  -11.1638    0.0000 C   0  0  0  0  0  0  0  0  0  0  0  0
   -0.4775   -9.6721    0.0000 N   0  0  0  0  0  0  0  0  0  0  0  0
   -1.8478   -9.0619    0.0000 C   0  0  0  0  0  0  0  0  0  0  0  0
   -3.0613   -9.9436    0.0000 C   0  0  0  0  0  0  0  0  0  0  0  0
   -2.9046  -11.4354    0.0000 C   0  0  0  0  0  0  0  0  0  0  0  0
   -4.1181  -12.3171    0.0000 C   0  0  0  0  0  0  0  0  0  0  0  0
   -3.9613  -13.8089    0.0000 C   0  0  0  0  0  0  0  0  0  0  0  0
   -5.1748  -14.6905    0.0000 N   0  0  0  0  0  0  0  0  0  0  0  0
   -5.0180  -16.1823    0.0000 C   0  0  0  0  0  0  0  0  0  0  0  0
   -3.6477  -16.7924    0.0000 O   0  0  0  0  0  0  0  0  0  0  0  0
   -6.2315  -17.0640    0.0000 C   0  0  0  0  0  0  0  0  0  0  0  0
   -7.6019  -16.4539    0.0000 N   0  0  0  0  0  0  0  0  0  0  0  0
   -8.8154  -17.3356    0.0000 C   0  0  0  0  0  0  0  0  0  0  0  0
   -8.6586  -18.8274    0.0000 C   0  0  0  0  0  0  0  0  0  0  0  0
   -7.2883  -19.4375    0.0000 C   0  0  0  0  0  0  0  0  0  0  0  0
   -6.0748  -18.5558    0.0000 C   0  0  0  0  0  0  0  0  0  0  0  0
   -4.7044  -19.1659    0.0000 O   0  0  0  0  0  0  0  0  0  0  0  0
   -2.0046   -7.5702    0.0000 C   0  0  0  0  0  0  0  0  0  0  0  0
   -3.3037   -6.8202    0.0000 N   0  0  0  0  0  0  0  0  0  0  0  0
   -2.9918   -5.3529    0.0000 C   0  0  0  0  0  0  0  0  0  0  0  0
   -1.5000   -5.1962    0.0000 C   0  0  0  0  0  0  0  0  0  0  0  0
   -0.7500   -3.8971    0.0000 C   0  0  0  0  0  0  0  0  0  0  0  0
    0.7500   -3.8971    0.0000 C   0  0  0  0  0  0  0  0  0  0  0  0
    1.5000   -2.5981    0.0000 C   0  0  0  0  0  0  0  0  0  0  0  0
    0.7500   -1.2990    0.0000 C   0  0  0  0  0  0  0  0  0  0  0  0
    1.5000    0.0000    0.0000 C   0  0  0  0  0  0  0  0  0  0  0  0
    0.7500    1.2990    0.0000 C   0  0  0  0  0  0  0  0  0  0  0  0
   -0.7500    1.2990    0.0000 C   0  0  0  0  0  0  0  0  0  0  0  0
   -1.5000    0.0000    0.0000 C   0  0  0  0  0  0  0  0  0  0  0  0
   -0.7500   -1.2990    0.0000 C   0  0  0  0  0  0  0  0  0  0  0  0
   -1.5000   -2.5981    0.0000 C   0  0  0  0  0  0  0  0  0  0  0  0
   -0.8899   -6.5665    0.0000 N   0  0  0  0  0  0  0  0  0  0  0  0
    1.0496  -11.7739    0.0000 C   0  0  0  0  0  0  0  0  0  0  0  0
    2.3486  -11.0239    0.0000 C   0  0  0  0  0  0  0  0  0  0  0  0
    3.4634  -12.0276    0.0000 N   0  0  0  0  0  0  0  0  0  0  0  0
    2.8533  -13.3980    0.0000 C   0  0  0  0  0  0  0  0  0  0  0  0
    1.3615  -13.2412    0.0000 S   0  0  0  0  0  0  0  0  0  0  0  0
  1  2  2  0
  2  3  1  0
  3  4  1  0
  4  5  1  0
  5  6  1  0
  6  7  1  0
  7  8  1  0
  8  9  1  0
  9 10  1  0
 10 11  2  0
 10 12  1  0
 12 13  2  0
 13 14  1  0
 14 15  2  0
 15 16  1  0
 16 17  2  0
 17 18  1  0
  4 19  1  0
 19 20  2  0
 20 21  1  0
 21 22  2  0
 22 23  1  0
 23 24  2  0
 24 25  1  0
 25 26  2  0
 26 27  1  0
 27 28  2  0
 28 29  1  0
 29 30  2  0
 30 31  1  0
 31 32  2  0
 22 33  1  0
  2 34  1  0
 34 35  2  0
 35 36  1  0
 36 37  2  0
 37 38  1  0
 17 12  1  0
 33 19  1  0
 38 34  1  0
 32 23  1  0
 31 26  1  0
M  END
>  <molecule_chembl_id>  (960) 
CHEMBL4782216

>  <canonical_smiles>  (960) 
O=C(NC(CCCCNC(=O)c1ncccc1O)c1ncc(-c2ccc3ccccc3c2)[nH]1)c1cncs1

>  <pchembl_value_mean>  (960) 
7.16

>  <document_chembl_id>  (960) 
CHEMBL4725494

$$$$

     RDKit          2D

 42 44  0  0  0  0  0  0  0  0999 V2000
   12.1339   -5.1962    0.0000 C   0  0  0  0  0  0  0  0  0  0  0  0
   11.3839   -3.8971    0.0000 C   0  0  0  0  0  0  0  0  0  0  0  0
    9.8839   -3.8971    0.0000 C   0  0  0  0  0  0  0  0  0  0  0  0
    9.1339   -5.1962    0.0000 O   0  0  0  0  0  0  0  0  0  0  0  0
    9.1339   -2.5981    0.0000 C   0  0  0  0  0  0  0  0  0  0  0  0
    7.6339   -2.5981    0.0000 C   0  0  0  0  0  0  0  0  0  0  0  0
    6.8839   -1.2990    0.0000 C   0  0  0  0  0  0  0  0  0  0  0  0
    5.3839   -1.2990    0.0000 C   0  0  0  0  0  0  0  0  0  0  0  0
    4.6339    0.0000    0.0000 C   0  0  0  0  0  0  0  0  0  0  0  0
    3.1339    0.0000    0.0000 C   0  0  0  0  0  0  0  0  0  0  0  0
    2.7750    1.4564    0.0000 N   0  0  0  0  0  0  0  0  0  0  0  0
    1.7803    2.5792    0.0000 C   0  0  0  0  0  0  0  0  0  0  0  0
    2.6324    3.8137    0.0000 O   0  0  0  0  0  0  0  0  0  0  0  0
    0.3778    3.1111    0.0000 C   0  0  0  0  0  0  0  0  0  0  0  0
    0.5586    4.6001    0.0000 C   0  0  0  0  0  0  0  0  0  0  0  0
   -1.1113    2.9303    0.0000 N   0  0  0  0  0  0  0  0  0  0  0  0
   -1.6432    4.3328    0.0000 C   0  0  0  0  0  0  0  0  0  0  0  0
   -2.3458    2.0782    0.0000 C   0  0  0  0  0  0  0  0  0  0  0  0
   -3.4686    3.0729    0.0000 O   0  0  0  0  0  0  0  0  0  0  0  0
   -3.0429    0.7500    0.0000 C   0  0  0  0  0  0  0  0  0  0  0  0
   -3.0429   -0.7500    0.0000 C   0  0  0  0  0  0  0  0  0  0  0  0
   -4.4993   -1.1090    0.0000 C   0  0  0  0  0  0  0  0  0  0  0  0
   -5.5384   -0.0272    0.0000 C   0  0  0  0  0  0  0  0  0  0  0  0
   -6.9948   -0.3861    0.0000 C   0  0  0  0  0  0  0  0  0  0  0  0
   -5.1210    1.4136    0.0000 C   0  0  0  0  0  0  0  0  0  0  0  0
   -2.3458   -2.0782    0.0000 N   0  0  0  0  0  0  0  0  0  0  0  0
   -1.1113   -2.9303    0.0000 C   0  0  0  0  0  0  0  0  0  0  0  0
   -1.6432   -4.3328    0.0000 O   0  0  0  0  0  0  0  0  0  0  0  0
    0.3778   -3.1111    0.0000 C   0  0  0  0  0  0  0  0  0  0  0  0
    0.5586   -4.6001    0.0000 C   0  0  0  0  0  0  0  0  0  0  0  0
   -0.6406   -5.5013    0.0000 C   0  0  0  0  0  0  0  0  0  0  0  0
   -2.0745   -5.0608    0.0000 C   0  0  0  0  0  0  0  0  0  0  0  0
   -2.9365   -6.2884    0.0000 N   0  0  0  0  0  0  0  0  0  0  0  0
   -2.0354   -7.4875    0.0000 C   0  0  0  0  0  0  0  0  0  0  0  0
   -2.3236   -8.9596    0.0000 C   0  0  0  0  0  0  0  0  0  0  0  0
   -1.1928   -9.9452    0.0000 C   0  0  0  0  0  0  0  0  0  0  0  0
    0.2261   -9.4587    0.0000 C   0  0  0  0  0  0  0  0  0  0  0  0
    0.5143   -7.9867    0.0000 C   0  0  0  0  0  0  0  0  0  0  0  0
   -0.6164   -7.0011    0.0000 C   0  0  0  0  0  0  0  0  0  0  0  0
    1.7803   -2.5792    0.0000 N   0  0  0  0  0  0  0  0  0  0  0  0
    2.7750   -1.4564    0.0000 C   0  0  0  0  0  0  0  0  0  0  0  0
    4.1031   -2.1535    0.0000 O   0  0  0  0  0  0  0  0  0  0  0  0
  1  2  1  0
  2  3  1  0
  3  4  2  0
  3  5  1  0
  5  6  1  0
  6  7  1  0
  7  8  1  0
  8  9  1  0
  9 10  1  0
 10 11  1  0
 11 12  1  0
 12 13  2  0
 12 14  1  0
 14 15  1  0
 14 16  1  0
 16 17  1  0
 16 18  1  0
 18 19  2  0
 18 20  1  0
 20 21  1  0
 21 22  1  0
 22 23  1  0
 23 24  1  0
 23 25  1  0
 21 26  1  0
 26 27  1  0
 27 28  2  0
 27 29  1  0
 29 30  1  0
 30 31  1  0
 31 32  2  0
 32 33  1  0
 33 34  1  0
 34 35  2  0
 35 36  1  0
 36 37  2  0
 37 38  1  0
 38 39  2  0
 29 40  1  0
 40 41  1  0
 41 42  2  0
 41 10  1  0
 39 31  1  0
 39 34  1  0
M  END
>  <molecule_chembl_id>  (961) 
CHEMBL2012813

>  <canonical_smiles>  (961) 
CCC(=O)CCCCCC1NC(=O)C(C)N(C)C(=O)CC(CC(C)C)NC(=O)C(Cc2c[nH]c3ccccc23)NC1=O

>  <pchembl_value_mean>  (961) 
7.16

>  <document_chembl_id>  (961) 
CHEMBL2169795

$$$$

     RDKit          2D

 21 22  0  0  0  0  0  0  0  0999 V2000
    5.8875   -3.9505    0.0000 O   0  0  0  0  0  0  0  0  0  0  0  0
    4.6740   -4.8322    0.0000 C   0  0  0  0  0  0  0  0  0  0  0  0
    4.8308   -6.3240    0.0000 N   0  0  0  0  0  0  0  0  0  0  0  0
    6.2011   -6.9341    0.0000 C   0  0  0  0  0  0  0  0  0  0  0  0
    6.3579   -8.4259    0.0000 C   0  0  0  0  0  0  0  0  0  0  0  0
    7.7282   -9.0360    0.0000 C   0  0  0  0  0  0  0  0  0  0  0  0
    7.8850  -10.5278    0.0000 C   0  0  0  0  0  0  0  0  0  0  0  0
    9.2553  -11.1379    0.0000 C   0  0  0  0  0  0  0  0  0  0  0  0
    9.4121  -12.6296    0.0000 C   0  0  0  0  0  0  0  0  0  0  0  0
   10.7824  -13.2397    0.0000 S   0  0  0  0  0  0  0  0  0  0  0  0
    3.3037   -4.2221    0.0000 C   0  0  0  0  0  0  0  0  0  0  0  0
    2.9918   -2.7549    0.0000 C   0  0  0  0  0  0  0  0  0  0  0  0
    1.5000   -2.5981    0.0000 C   0  0  0  0  0  0  0  0  0  0  0  0
    0.7500   -1.2990    0.0000 C   0  0  0  0  0  0  0  0  0  0  0  0
    1.5000    0.0000    0.0000 C   0  0  0  0  0  0  0  0  0  0  0  0
    0.7500    1.2990    0.0000 N   0  0  0  0  0  0  0  0  0  0  0  0
   -0.7500    1.2990    0.0000 C   0  0  0  0  0  0  0  0  0  0  0  0
   -1.5000    0.0000    0.0000 C   0  0  0  0  0  0  0  0  0  0  0  0
   -0.7500   -1.2990    0.0000 N   0  0  0  0  0  0  0  0  0  0  0  0
    0.8899   -3.9684    0.0000 N   0  0  0  0  0  0  0  0  0  0  0  0
    2.0046   -4.9721    0.0000 N   0  0  0  0  0  0  0  0  0  0  0  0
  1  2  2  0
  2  3  1  0
  3  4  1  0
  4  5  1  0
  5  6  1  0
  6  7  1  0
  7  8  1  0
  8  9  1  0
  9 10  1  0
  2 11  1  0
 11 12  2  0
 12 13  1  0
 13 14  1  0
 14 15  2  0
 15 16  1  0
 16 17  2  0
 17 18  1  0
 18 19  2  0
 13 20  2  0
 20 21  1  0
 21 11  1  0
 19 14  1  0
M  END
>  <molecule_chembl_id>  (962) 
CHEMBL3760013

>  <canonical_smiles>  (962) 
O=C(NCCCCCCS)c1cc(-c2cnccn2)n[nH]1

>  <pchembl_value_mean>  (962) 
7.17

>  <document_chembl_id>  (962) 
CHEMBL3758091

$$$$

     RDKit          2D

 24 25  0  0  0  0  0  0  0  0999 V2000
    8.8713   -6.4952    0.0000 O   0  0  0  0  0  0  0  0  0  0  0  0
    7.3713   -6.4952    0.0000 C   0  0  0  0  0  0  0  0  0  0  0  0
    6.3107   -7.5559    0.0000 C   0  0  0  0  0  0  0  0  0  0  0  0
    5.2500   -6.4952    0.0000 C   0  0  0  0  0  0  0  0  0  0  0  0
    3.7500   -6.4952    0.0000 C   0  0  0  0  0  0  0  0  0  0  0  0
    3.0000   -7.7942    0.0000 O   0  0  0  0  0  0  0  0  0  0  0  0
    3.0000   -5.1962    0.0000 N   0  0  0  0  0  0  0  0  0  0  0  0
    1.5000   -5.1962    0.0000 C   0  0  0  0  0  0  0  0  0  0  0  0
    0.7500   -6.4952    0.0000 C   0  0  0  0  0  0  0  0  0  0  0  0
    1.5000   -7.7942    0.0000 C   0  0  0  0  0  0  0  0  0  0  0  0
    0.7500   -9.0933    0.0000 C   0  0  0  0  0  0  0  0  0  0  0  0
    1.5000  -10.3923    0.0000 C   0  0  0  0  0  0  0  0  0  0  0  0
    0.7500  -11.6913    0.0000 C   0  0  0  0  0  0  0  0  0  0  0  0
    1.5000  -12.9904    0.0000 S   0  0  0  0  0  0  0  0  0  0  0  0
    0.7500   -3.8971    0.0000 C   0  0  0  0  0  0  0  0  0  0  0  0
   -0.7500   -3.8971    0.0000 O   0  0  0  0  0  0  0  0  0  0  0  0
    1.5000   -2.5981    0.0000 N   0  0  0  0  0  0  0  0  0  0  0  0
    0.7500   -1.2990    0.0000 C   0  0  0  0  0  0  0  0  0  0  0  0
    1.5000    0.0000    0.0000 C   0  0  0  0  0  0  0  0  0  0  0  0
    0.7500    1.2990    0.0000 C   0  0  0  0  0  0  0  0  0  0  0  0
   -0.7500    1.2990    0.0000 C   0  0  0  0  0  0  0  0  0  0  0  0
   -1.5000    0.0000    0.0000 C   0  0  0  0  0  0  0  0  0  0  0  0
   -0.7500   -1.2990    0.0000 C   0  0  0  0  0  0  0  0  0  0  0  0
    6.3107   -5.4345    0.0000 N   0  0  0  0  0  0  0  0  0  0  0  0
  1  2  2  0
  2  3  1  0
  3  4  1  0
  4  5  1  0
  5  6  2  0
  5  7  1  0
  7  8  1  0
  8  9  1  0
  9 10  1  0
 10 11  1  0
 11 12  1  0
 12 13  1  0
 13 14  1  0
  8 15  1  0
 15 16  2  0
 15 17  1  0
 17 18  1  0
 18 19  2  0
 19 20  1  0
 20 21  2  0
 21 22  1  0
 22 23  2  0
  4 24  1  0
 24  2  1  0
 23 18  1  0
M  END
>  <molecule_chembl_id>  (963) 
CHEMBL3356929

>  <canonical_smiles>  (963) 
O=C1CC(C(=O)NC(CCCCCS)C(=O)Nc2ccccc2)N1

>  <pchembl_value_mean>  (963) 
7.17

>  <document_chembl_id>  (963) 
CHEMBL3352570

$$$$

     RDKit          2D

 21 22  0  0  0  0  0  0  0  0999 V2000
    8.2500   -3.8971    0.0000 C   0  0  0  0  0  0  0  0  0  0  0  0
    7.5000   -2.5981    0.0000 C   0  0  0  0  0  0  0  0  0  0  0  0
    6.0000   -2.5981    0.0000 C   0  0  0  0  0  0  0  0  0  0  0  0
    5.2500   -1.2990    0.0000 N   0  0  0  0  0  0  0  0  0  0  0  0
    3.7500   -1.2990    0.0000 N   0  0  0  0  0  0  0  0  0  0  0  0
    3.0000    0.0000    0.0000 C   0  0  0  0  0  0  0  0  0  0  0  0
    3.7500    1.2990    0.0000 O   0  0  0  0  0  0  0  0  0  0  0  0
    1.5000    0.0000    0.0000 C   0  0  0  0  0  0  0  0  0  0  0  0
    0.7500   -1.2990    0.0000 C   0  0  0  0  0  0  0  0  0  0  0  0
   -0.7500   -1.2990    0.0000 C   0  0  0  0  0  0  0  0  0  0  0  0
   -1.5000    0.0000    0.0000 C   0  0  0  0  0  0  0  0  0  0  0  0
   -3.0000    0.0000    0.0000 N   0  0  0  0  0  0  0  0  0  0  0  0
   -3.7500    1.2990    0.0000 C   0  0  0  0  0  0  0  0  0  0  0  0
   -5.2500    1.2990    0.0000 C   0  0  0  0  0  0  0  0  0  0  0  0
   -6.0000    2.5981    0.0000 C   0  0  0  0  0  0  0  0  0  0  0  0
   -7.5000    2.5981    0.0000 C   0  0  0  0  0  0  0  0  0  0  0  0
   -8.2500    1.2990    0.0000 C   0  0  0  0  0  0  0  0  0  0  0  0
   -7.5000    0.0000    0.0000 C   0  0  0  0  0  0  0  0  0  0  0  0
   -6.0000    0.0000    0.0000 C   0  0  0  0  0  0  0  0  0  0  0  0
   -0.7500    1.2990    0.0000 C   0  0  0  0  0  0  0  0  0  0  0  0
    0.7500    1.2990    0.0000 C   0  0  0  0  0  0  0  0  0  0  0  0
  1  2  1  0
  2  3  1  0
  3  4  1  0
  4  5  1  0
  5  6  1  0
  6  7  2  0
  6  8  1  0
  8  9  2  0
  9 10  1  0
 10 11  2  0
 11 12  1  0
 12 13  1  0
 13 14  1  0
 14 15  2  0
 15 16  1  0
 16 17  2  0
 17 18  1  0
 18 19  2  0
 11 20  1  0
 20 21  2  0
 21  8  1  0
 19 14  1  0
M  END
>  <molecule_chembl_id>  (964) 
CHEMBL4534191

>  <canonical_smiles>  (964) 
CCCNNC(=O)c1ccc(NCc2ccccc2)cc1

>  <pchembl_value_mean>  (964) 
7.17

>  <document_chembl_id>  (964) 
CHEMBL4342521

$$$$

     RDKit          2D

 31 34  0  0  0  0  0  0  0  0999 V2000
    3.0000    0.0000    0.0000 N   0  0  0  0  0  0  0  0  0  0  0  0
    1.5000    0.0000    0.0000 C   0  0  0  0  0  0  0  0  0  0  0  0
    0.7500   -1.2990    0.0000 C   0  0  0  0  0  0  0  0  0  0  0  0
   -0.7500   -1.2990    0.0000 C   0  0  0  0  0  0  0  0  0  0  0  0
   -1.5000    0.0000    0.0000 C   0  0  0  0  0  0  0  0  0  0  0  0
   -0.7500    1.2990    0.0000 C   0  0  0  0  0  0  0  0  0  0  0  0
    0.7500    1.2990    0.0000 C   0  0  0  0  0  0  0  0  0  0  0  0
    1.5000    2.5981    0.0000 N   0  0  0  0  0  0  0  0  0  0  0  0
    0.7500    3.8971    0.0000 C   0  0  0  0  0  0  0  0  0  0  0  0
   -0.7500    3.8971    0.0000 O   0  0  0  0  0  0  0  0  0  0  0  0
    1.5000    5.1962    0.0000 C   0  0  0  0  0  0  0  0  0  0  0  0
    3.0000    5.1962    0.0000 C   0  0  0  0  0  0  0  0  0  0  0  0
    3.7500    6.4952    0.0000 C   0  0  0  0  0  0  0  0  0  0  0  0
    3.0000    7.7942    0.0000 C   0  0  0  0  0  0  0  0  0  0  0  0
    3.7500    9.0933    0.0000 C   0  0  0  0  0  0  0  0  0  0  0  0
    5.2500    9.0933    0.0000 N   0  0  0  0  0  0  0  0  0  0  0  0
    6.0000   10.3923    0.0000 C   0  0  0  0  0  0  0  0  0  0  0  0
    5.3899   11.7626    0.0000 N   0  0  0  0  0  0  0  0  0  0  0  0
    6.5046   12.7663    0.0000 C   0  0  0  0  0  0  0  0  0  0  0  0
    6.3478   14.2581    0.0000 O   0  0  0  0  0  0  0  0  0  0  0  0
    7.8037   12.0163    0.0000 C   0  0  0  0  0  0  0  0  0  0  0  0
    9.1740   12.6264    0.0000 C   0  0  0  0  0  0  0  0  0  0  0  0
   10.3875   11.7447    0.0000 C   0  0  0  0  0  0  0  0  0  0  0  0
   10.2307   10.2530    0.0000 C   0  0  0  0  0  0  0  0  0  0  0  0
   11.4442    9.3713    0.0000 C   0  0  0  0  0  0  0  0  0  0  0  0
   12.8145    9.9814    0.0000 C   0  0  0  0  0  0  0  0  0  0  0  0
   12.9713   11.4732    0.0000 C   0  0  0  0  0  0  0  0  0  0  0  0
   11.7578   12.3549    0.0000 C   0  0  0  0  0  0  0  0  0  0  0  0
    7.4918   10.5491    0.0000 N   0  0  0  0  0  0  0  0  0  0  0  0
    1.5000    7.7942    0.0000 C   0  0  0  0  0  0  0  0  0  0  0  0
    0.7500    6.4952    0.0000 C   0  0  0  0  0  0  0  0  0  0  0  0
  1  2  1  0
  2  3  2  0
  3  4  1  0
  4  5  2  0
  5  6  1  0
  6  7  2  0
  7  8  1  0
  8  9  1  0
  9 10  2  0
  9 11  1  0
 11 12  2  0
 12 13  1  0
 13 14  2  0
 14 15  1  0
 15 16  1  0
 16 17  1  0
 17 18  2  0
 18 19  1  0
 19 20  2  0
 19 21  1  0
 21 22  1  0
 22 23  1  0
 23 24  2  0
 24 25  1  0
 25 26  2  0
 26 27  1  0
 27 28  2  0
 21 29  1  0
 14 30  1  0
 30 31  2  0
  7  2  1  0
 31 11  1  0
 29 17  1  0
 28 23  1  0
M  END
>  <molecule_chembl_id>  (965) 
CHEMBL2407735

>  <canonical_smiles>  (965) 
Nc1ccccc1NC(=O)c1ccc(CNC2=NC(=O)C(Cc3ccccc3)N2)cc1

>  <pchembl_value_mean>  (965) 
7.18

>  <document_chembl_id>  (965) 
CHEMBL2407081

$$$$

     RDKit          2D

 32 33  0  0  0  0  0  0  0  0999 V2000
    3.7500   -1.2990    0.0000 C   0  0  0  0  0  0  0  0  0  0  0  0
    3.0000    0.0000    0.0000 N   0  0  0  0  0  0  0  0  0  0  0  0
    3.7500    1.2990    0.0000 C   0  0  0  0  0  0  0  0  0  0  0  0
    1.5000    0.0000    0.0000 C   0  0  0  0  0  0  0  0  0  0  0  0
    0.7500   -1.2990    0.0000 C   0  0  0  0  0  0  0  0  0  0  0  0
   -0.7500   -1.2990    0.0000 C   0  0  0  0  0  0  0  0  0  0  0  0
   -1.5000    0.0000    0.0000 C   0  0  0  0  0  0  0  0  0  0  0  0
   -3.0000    0.0000    0.0000 C   0  0  0  0  0  0  0  0  0  0  0  0
   -3.7500   -1.2990    0.0000 O   0  0  0  0  0  0  0  0  0  0  0  0
   -3.7500    1.2990    0.0000 N   0  0  0  0  0  0  0  0  0  0  0  0
   -5.2500    1.2990    0.0000 C   0  0  0  0  0  0  0  0  0  0  0  0
   -6.0000    2.5981    0.0000 C   0  0  0  0  0  0  0  0  0  0  0  0
   -7.5000    2.5981    0.0000 C   0  0  0  0  0  0  0  0  0  0  0  0
   -8.2500    3.8971    0.0000 C   0  0  0  0  0  0  0  0  0  0  0  0
   -9.7500    3.8971    0.0000 C   0  0  0  0  0  0  0  0  0  0  0  0
  -10.5000    5.1962    0.0000 C   0  0  0  0  0  0  0  0  0  0  0  0
   -9.7500    6.4952    0.0000 O   0  0  0  0  0  0  0  0  0  0  0  0
  -12.0000    5.1962    0.0000 N   0  0  0  0  0  0  0  0  0  0  0  0
  -12.7500    6.4952    0.0000 O   0  0  0  0  0  0  0  0  0  0  0  0
   -3.0000    2.5981    0.0000 C   0  0  0  0  0  0  0  0  0  0  0  0
   -3.7500    3.8971    0.0000 C   0  0  0  0  0  0  0  0  0  0  0  0
   -5.2500    3.8971    0.0000 O   0  0  0  0  0  0  0  0  0  0  0  0
   -3.0000    5.1962    0.0000 N   0  0  0  0  0  0  0  0  0  0  0  0
   -3.7500    6.4952    0.0000 C   0  0  0  0  0  0  0  0  0  0  0  0
   -3.0000    7.7942    0.0000 C   0  0  0  0  0  0  0  0  0  0  0  0
   -1.5000    7.7942    0.0000 C   0  0  0  0  0  0  0  0  0  0  0  0
   -0.7500    9.0933    0.0000 C   0  0  0  0  0  0  0  0  0  0  0  0
   -1.5000   10.3923    0.0000 C   0  0  0  0  0  0  0  0  0  0  0  0
   -3.0000   10.3923    0.0000 C   0  0  0  0  0  0  0  0  0  0  0  0
   -3.7500    9.0933    0.0000 C   0  0  0  0  0  0  0  0  0  0  0  0
   -0.7500    1.2990    0.0000 C   0  0  0  0  0  0  0  0  0  0  0  0
    0.7500    1.2990    0.0000 C   0  0  0  0  0  0  0  0  0  0  0  0
  1  2  1  0
  2  3  1  0
  2  4  1  0
  4  5  2  0
  5  6  1  0
  6  7  2  0
  7  8  1  0
  8  9  2  0
  8 10  1  0
 10 11  1  0
 11 12  1  0
 12 13  1  0
 13 14  1  0
 14 15  1  0
 15 16  1  0
 16 17  2  0
 16 18  1  0
 18 19  1  0
 10 20  1  0
 20 21  1  0
 21 22  2  0
 21 23  1  0
 23 24  1  0
 24 25  1  0
 25 26  2  0
 26 27  1  0
 27 28  2  0
 28 29  1  0
 29 30  2  0
  7 31  1  0
 31 32  2  0
 32  4  1  0
 30 25  1  0
M  END
>  <molecule_chembl_id>  (966) 
CHEMBL4069631

>  <canonical_smiles>  (966) 
CN(C)c1ccc(C(=O)N(CCCCCC(=O)NO)CC(=O)NCc2ccccc2)cc1

>  <pchembl_value_mean>  (966) 
7.18

>  <document_chembl_id>  (966) 
CHEMBL4014348

$$$$

     RDKit          2D

 37 40  0  0  0  0  0  0  0  0999 V2000
   14.7990   -8.5442    0.0000 C   0  0  0  0  0  0  0  0  0  0  0  0
   13.2990   -8.5442    0.0000 C   0  0  0  0  0  0  0  0  0  0  0  0
   12.5490   -7.2452    0.0000 C   0  0  0  0  0  0  0  0  0  0  0  0
   13.2990   -5.9462    0.0000 O   0  0  0  0  0  0  0  0  0  0  0  0
   11.0490   -7.2452    0.0000 C   0  0  0  0  0  0  0  0  0  0  0  0
   10.2990   -5.9462    0.0000 C   0  0  0  0  0  0  0  0  0  0  0  0
    8.7990   -5.9462    0.0000 C   0  0  0  0  0  0  0  0  0  0  0  0
    8.0490   -4.6471    0.0000 C   0  0  0  0  0  0  0  0  0  0  0  0
    6.5490   -4.6471    0.0000 C   0  0  0  0  0  0  0  0  0  0  0  0
    5.7990   -3.3481    0.0000 C   0  0  0  0  0  0  0  0  0  0  0  0
    4.2990   -3.3481    0.0000 N   0  0  0  0  0  0  0  0  0  0  0  0
    3.5490   -2.0490    0.0000 C   0  0  0  0  0  0  0  0  0  0  0  0
    4.2990   -0.7500    0.0000 O   0  0  0  0  0  0  0  0  0  0  0  0
    2.0490   -2.0490    0.0000 C   0  0  0  0  0  0  0  0  0  0  0  0
    0.7500   -2.7990    0.0000 C   0  0  0  0  0  0  0  0  0  0  0  0
    0.7500   -1.2990    0.0000 C   0  0  0  0  0  0  0  0  0  0  0  0
    1.5000    0.0000    0.0000 C   0  0  0  0  0  0  0  0  0  0  0  0
    0.7500    1.2990    0.0000 C   0  0  0  0  0  0  0  0  0  0  0  0
   -0.7500    1.2990    0.0000 N   0  0  0  0  0  0  0  0  0  0  0  0
   -1.5000    2.5981    0.0000 C   0  0  0  0  0  0  0  0  0  0  0  0
   -0.7500    3.8971    0.0000 C   0  0  0  0  0  0  0  0  0  0  0  0
   -1.5000    0.0000    0.0000 C   0  0  0  0  0  0  0  0  0  0  0  0
   -0.7500   -1.2990    0.0000 C   0  0  0  0  0  0  0  0  0  0  0  0
    6.5490   -2.0490    0.0000 C   0  0  0  0  0  0  0  0  0  0  0  0
    5.9389   -0.6787    0.0000 N   0  0  0  0  0  0  0  0  0  0  0  0
    7.0537    0.3250    0.0000 C   0  0  0  0  0  0  0  0  0  0  0  0
    8.3527   -0.4250    0.0000 C   0  0  0  0  0  0  0  0  0  0  0  0
    9.7230    0.1851    0.0000 C   0  0  0  0  0  0  0  0  0  0  0  0
   10.9365   -0.6966    0.0000 C   0  0  0  0  0  0  0  0  0  0  0  0
   12.3069   -0.0865    0.0000 C   0  0  0  0  0  0  0  0  0  0  0  0
   12.4636    1.4053    0.0000 C   0  0  0  0  0  0  0  0  0  0  0  0
   13.8340    2.0154    0.0000 Cl  0  0  0  0  0  0  0  0  0  0  0  0
   11.2501    2.2870    0.0000 C   0  0  0  0  0  0  0  0  0  0  0  0
    9.8798    1.6769    0.0000 C   0  0  0  0  0  0  0  0  0  0  0  0
    8.6663    2.5585    0.0000 O   0  0  0  0  0  0  0  0  0  0  0  0
    8.8231    4.0503    0.0000 C   0  0  0  0  0  0  0  0  0  0  0  0
    8.0408   -1.8922    0.0000 N   0  0  0  0  0  0  0  0  0  0  0  0
  1  2  1  0
  2  3  1  0
  3  4  2  0
  3  5  1  0
  5  6  1  0
  6  7  1  0
  7  8  1  0
  8  9  1  0
  9 10  1  0
 10 11  1  0
 11 12  1  0
 12 13  2  0
 12 14  1  0
 14 15  1  0
 15 16  1  0
 16 17  1  0
 17 18  1  0
 18 19  1  0
 19 20  1  0
 20 21  1  0
 19 22  1  0
 22 23  1  0
 10 24  1  0
 24 25  2  0
 25 26  1  0
 26 27  2  0
 27 28  1  0
 28 29  2  0
 29 30  1  0
 30 31  2  0
 31 32  1  0
 31 33  1  0
 33 34  2  0
 34 35  1  0
 35 36  1  0
 27 37  1  0
 16 14  1  0
 37 24  1  0
 23 16  1  0
 34 28  1  0
M  END
>  <molecule_chembl_id>  (967) 
CHEMBL4781134

>  <canonical_smiles>  (967) 
CCC(=O)CCCCCC(NC(=O)C1CC12CCN(CC)CC2)c1ncc(-c2ccc(Cl)cc2OC)[nH]1

>  <pchembl_value_mean>  (967) 
7.19

>  <document_chembl_id>  (967) 
CHEMBL4680369

$$$$

     RDKit          2D

 30 32  0  0  0  0  0  0  0  0999 V2000
   12.7500   -3.8971    0.0000 O   0  0  0  0  0  0  0  0  0  0  0  0
   12.0000   -5.1962    0.0000 C   0  0  0  0  0  0  0  0  0  0  0  0
   10.5000   -5.1962    0.0000 C   0  0  0  0  0  0  0  0  0  0  0  0
    9.7500   -3.8971    0.0000 C   0  0  0  0  0  0  0  0  0  0  0  0
    8.2500   -3.8971    0.0000 C   0  0  0  0  0  0  0  0  0  0  0  0
    7.5000   -2.5981    0.0000 C   0  0  0  0  0  0  0  0  0  0  0  0
    6.0000   -2.5981    0.0000 C   0  0  0  0  0  0  0  0  0  0  0  0
    5.2500   -1.2990    0.0000 C   0  0  0  0  0  0  0  0  0  0  0  0
    3.7500   -1.2990    0.0000 C   0  0  0  0  0  0  0  0  0  0  0  0
    3.0000   -2.5981    0.0000 O   0  0  0  0  0  0  0  0  0  0  0  0
    3.0000    0.0000    0.0000 N   0  0  0  0  0  0  0  0  0  0  0  0
    1.5000    0.0000    0.0000 C   0  0  0  0  0  0  0  0  0  0  0  0
    0.7500   -1.2990    0.0000 C   0  0  0  0  0  0  0  0  0  0  0  0
   -0.7500   -1.2990    0.0000 C   0  0  0  0  0  0  0  0  0  0  0  0
   -1.5000    0.0000    0.0000 C   0  0  0  0  0  0  0  0  0  0  0  0
   -0.7500    1.2990    0.0000 C   0  0  0  0  0  0  0  0  0  0  0  0
   -1.5000    2.5981    0.0000 C   0  0  0  0  0  0  0  0  0  0  0  0
   -2.9918    2.7549    0.0000 C   0  0  0  0  0  0  0  0  0  0  0  0
   -3.3037    4.2221    0.0000 N   0  0  0  0  0  0  0  0  0  0  0  0
   -4.6740    4.8322    0.0000 C   0  0  0  0  0  0  0  0  0  0  0  0
   -4.8308    6.3240    0.0000 C   0  0  0  0  0  0  0  0  0  0  0  0
   -6.2011    6.9341    0.0000 C   0  0  0  0  0  0  0  0  0  0  0  0
   -7.4146    6.0524    0.0000 C   0  0  0  0  0  0  0  0  0  0  0  0
   -7.2578    4.5606    0.0000 C   0  0  0  0  0  0  0  0  0  0  0  0
   -5.8875    3.9505    0.0000 C   0  0  0  0  0  0  0  0  0  0  0  0
   -2.0046    4.9721    0.0000 N   0  0  0  0  0  0  0  0  0  0  0  0
   -0.8899    3.9684    0.0000 N   0  0  0  0  0  0  0  0  0  0  0  0
    0.7500    1.2990    0.0000 C   0  0  0  0  0  0  0  0  0  0  0  0
   12.7500   -6.4952    0.0000 N   0  0  0  0  0  0  0  0  0  0  0  0
   14.2500   -6.4952    0.0000 O   0  0  0  0  0  0  0  0  0  0  0  0
  1  2  2  0
  2  3  1  0
  3  4  1  0
  4  5  1  0
  5  6  1  0
  6  7  1  0
  7  8  1  0
  8  9  1  0
  9 10  2  0
  9 11  1  0
 11 12  1  0
 12 13  2  0
 13 14  1  0
 14 15  2  0
 15 16  1  0
 16 17  1  0
 17 18  2  0
 18 19  1  0
 19 20  1  0
 20 21  2  0
 21 22  1  0
 22 23  2  0
 23 24  1  0
 24 25  2  0
 19 26  1  0
 26 27  2  0
 16 28  2  0
  2 29  1  0
 29 30  1  0
 28 12  1  0
 27 17  1  0
 25 20  1  0
M  END
>  <molecule_chembl_id>  (968) 
CHEMBL519668

>  <canonical_smiles>  (968) 
O=C(CCCCCCC(=O)Nc1cccc(-c2cn(-c3ccccc3)nn2)c1)NO

>  <pchembl_value_mean>  (968) 
7.19

>  <document_chembl_id>  (968) 
CHEMBL1150413

$$$$

     RDKit          2D

 32 35  0  0  0  0  0  0  0  0999 V2000
  -12.7500   -6.4952    0.0000 O   0  0  0  0  0  0  0  0  0  0  0  0
  -12.0000   -7.7942    0.0000 C   0  0  0  0  0  0  0  0  0  0  0  0
  -10.5000   -7.7942    0.0000 C   0  0  0  0  0  0  0  0  0  0  0  0
   -9.7500   -6.4952    0.0000 C   0  0  0  0  0  0  0  0  0  0  0  0
   -8.2500   -6.4952    0.0000 C   0  0  0  0  0  0  0  0  0  0  0  0
   -7.5000   -5.1962    0.0000 C   0  0  0  0  0  0  0  0  0  0  0  0
   -6.0000   -5.1962    0.0000 C   0  0  0  0  0  0  0  0  0  0  0  0
   -5.2500   -3.8971    0.0000 C   0  0  0  0  0  0  0  0  0  0  0  0
   -3.7500   -3.8971    0.0000 C   0  0  0  0  0  0  0  0  0  0  0  0
   -3.0000   -2.5981    0.0000 N   0  0  0  0  0  0  0  0  0  0  0  0
   -1.5000   -2.5981    0.0000 C   0  0  0  0  0  0  0  0  0  0  0  0
   -0.7500   -3.8971    0.0000 N   0  0  0  0  0  0  0  0  0  0  0  0
    0.7500   -3.8971    0.0000 N   0  0  0  0  0  0  0  0  0  0  0  0
    1.5000   -5.1962    0.0000 C   0  0  0  0  0  0  0  0  0  0  0  0
    0.7500   -6.4952    0.0000 O   0  0  0  0  0  0  0  0  0  0  0  0
    3.0000   -5.1962    0.0000 C   0  0  0  0  0  0  0  0  0  0  0  0
    3.7500   -6.4952    0.0000 C   0  0  0  0  0  0  0  0  0  0  0  0
    5.2500   -6.4952    0.0000 C   0  0  0  0  0  0  0  0  0  0  0  0
    6.0000   -7.7942    0.0000 Br  0  0  0  0  0  0  0  0  0  0  0  0
    6.0000   -5.1962    0.0000 C   0  0  0  0  0  0  0  0  0  0  0  0
    5.2500   -3.8971    0.0000 C   0  0  0  0  0  0  0  0  0  0  0  0
    3.7500   -3.8971    0.0000 C   0  0  0  0  0  0  0  0  0  0  0  0
    3.0000   -2.5981    0.0000 N   0  0  0  0  0  0  0  0  0  0  0  0
    1.5000   -2.5981    0.0000 C   0  0  0  0  0  0  0  0  0  0  0  0
    0.7500   -1.2990    0.0000 C   0  0  0  0  0  0  0  0  0  0  0  0
    1.5000    0.0000    0.0000 C   0  0  0  0  0  0  0  0  0  0  0  0
    0.7500    1.2990    0.0000 C   0  0  0  0  0  0  0  0  0  0  0  0
   -0.7500    1.2990    0.0000 C   0  0  0  0  0  0  0  0  0  0  0  0
   -1.5000    0.0000    0.0000 C   0  0  0  0  0  0  0  0  0  0  0  0
   -0.7500   -1.2990    0.0000 C   0  0  0  0  0  0  0  0  0  0  0  0
  -12.7500   -9.0933    0.0000 N   0  0  0  0  0  0  0  0  0  0  0  0
  -14.2500   -9.0933    0.0000 O   0  0  0  0  0  0  0  0  0  0  0  0
  1  2  2  0
  2  3  1  0
  3  4  1  0
  4  5  1  0
  5  6  1  0
  6  7  1  0
  7  8  1  0
  8  9  1  0
  9 10  1  0
 10 11  1  0
 11 12  2  0
 12 13  1  0
 13 14  1  0
 14 15  2  0
 14 16  1  0
 16 17  2  0
 17 18  1  0
 18 19  1  0
 18 20  2  0
 20 21  1  0
 21 22  2  0
 22 23  1  0
 23 24  2  0
 24 25  1  0
 25 26  2  0
 26 27  1  0
 27 28  2  0
 28 29  1  0
 29 30  2  0
  2 31  1  0
 31 32  1  0
 30 11  1  0
 24 13  1  0
 30 25  1  0
 22 16  1  0
M  END
>  <molecule_chembl_id>  (969) 
CHEMBL5078723

>  <canonical_smiles>  (969) 
O=C(CCCCCCCNc1nn2c(=O)c3cc(Br)ccc3nc2c2ccccc12)NO

>  <pchembl_value_mean>  (969) 
7.19

>  <document_chembl_id>  (969) 
CHEMBL5042505

$$$$

     RDKit          2D

 36 39  0  0  0  0  0  0  0  0999 V2000
    2.1306   -5.7367    0.0000 C   0  0  0  0  0  0  0  0  0  0  0  0
    0.7040   -6.2002    0.0000 O   0  0  0  0  0  0  0  0  0  0  0  0
    0.3922   -7.6675    0.0000 C   0  0  0  0  0  0  0  0  0  0  0  0
    1.5069   -8.6712    0.0000 C   0  0  0  0  0  0  0  0  0  0  0  0
    1.1950  -10.1384    0.0000 C   0  0  0  0  0  0  0  0  0  0  0  0
   -0.2316  -10.6019    0.0000 C   0  0  0  0  0  0  0  0  0  0  0  0
   -1.3463   -9.5982    0.0000 C   0  0  0  0  0  0  0  0  0  0  0  0
   -1.0344   -8.1310    0.0000 C   0  0  0  0  0  0  0  0  0  0  0  0
   -2.1491   -7.1273    0.0000 C   0  0  0  0  0  0  0  0  0  0  0  0
   -3.5757   -7.5908    0.0000 O   0  0  0  0  0  0  0  0  0  0  0  0
   -1.8373   -5.6601    0.0000 N   0  0  0  0  0  0  0  0  0  0  0  0
   -2.9520   -4.6564    0.0000 C   0  0  0  0  0  0  0  0  0  0  0  0
   -4.3786   -5.1199    0.0000 C   0  0  0  0  0  0  0  0  0  0  0  0
   -4.6904   -6.5871    0.0000 O   0  0  0  0  0  0  0  0  0  0  0  0
   -6.1170   -7.0506    0.0000 C   0  0  0  0  0  0  0  0  0  0  0  0
   -7.2317   -6.0469    0.0000 C   0  0  0  0  0  0  0  0  0  0  0  0
   -8.6583   -6.5105    0.0000 C   0  0  0  0  0  0  0  0  0  0  0  0
   -8.9702   -7.9777    0.0000 C   0  0  0  0  0  0  0  0  0  0  0  0
   -7.8555   -8.9814    0.0000 C   0  0  0  0  0  0  0  0  0  0  0  0
   -8.1673  -10.4486    0.0000 C   0  0  0  0  0  0  0  0  0  0  0  0
   -9.5939  -10.9121    0.0000 C   0  0  0  0  0  0  0  0  0  0  0  0
   -9.9058  -12.3794    0.0000 C   0  0  0  0  0  0  0  0  0  0  0  0
   -8.7911  -13.3831    0.0000 O   0  0  0  0  0  0  0  0  0  0  0  0
  -11.3324  -12.8429    0.0000 N   0  0  0  0  0  0  0  0  0  0  0  0
  -11.6442  -14.3101    0.0000 O   0  0  0  0  0  0  0  0  0  0  0  0
   -6.4289   -8.5179    0.0000 C   0  0  0  0  0  0  0  0  0  0  0  0
   -2.6401   -3.1891    0.0000 C   0  0  0  0  0  0  0  0  0  0  0  0
   -1.2135   -2.7256    0.0000 C   0  0  0  0  0  0  0  0  0  0  0  0
   -0.0000   -3.6073    0.0000 C   0  0  0  0  0  0  0  0  0  0  0  0
    1.2135   -2.7256    0.0000 N   0  0  0  0  0  0  0  0  0  0  0  0
    0.7500   -1.2990    0.0000 C   0  0  0  0  0  0  0  0  0  0  0  0
    1.5000    0.0000    0.0000 C   0  0  0  0  0  0  0  0  0  0  0  0
    0.7500    1.2990    0.0000 C   0  0  0  0  0  0  0  0  0  0  0  0
   -0.7500    1.2990    0.0000 C   0  0  0  0  0  0  0  0  0  0  0  0
   -1.5000    0.0000    0.0000 C   0  0  0  0  0  0  0  0  0  0  0  0
   -0.7500   -1.2990    0.0000 C   0  0  0  0  0  0  0  0  0  0  0  0
  1  2  1  0
  2  3  1  0
  3  4  2  0
  4  5  1  0
  5  6  2  0
  6  7  1  0
  7  8  2  0
  8  9  1  0
  9 10  2  0
  9 11  1  0
 11 12  1  0
 12 13  1  0
 13 14  1  0
 14 15  1  0
 15 16  2  0
 16 17  1  0
 17 18  2  0
 18 19  1  0
 19 20  1  0
 20 21  2  3
 21 22  1  0
 22 23  2  0
 22 24  1  0
 24 25  1  0
 19 26  2  0
 12 27  1  0
 27 28  1  0
 28 29  2  0
 29 30  1  0
 30 31  1  0
 31 32  2  0
 32 33  1  0
 33 34  2  0
 34 35  1  0
 35 36  2  0
  8  3  1  0
 26 15  1  0
 36 28  1  0
 36 31  1  0
M  END
>  <molecule_chembl_id>  (970) 
CHEMBL3354920

>  <canonical_smiles>  (970) 
COc1ccccc1C(=O)NC(COc1cccc(C=CC(=O)NO)c1)Cc1c[nH]c2ccccc12

>  <pchembl_value_mean>  (970) 
7.19

>  <document_chembl_id>  (970) 
CHEMBL3351443

$$$$

     RDKit          2D

 40 43  0  0  0  0  0  0  0  0999 V2000
   14.7990   -8.5442    0.0000 C   0  0  0  0  0  0  0  0  0  0  0  0
   13.2990   -8.5442    0.0000 C   0  0  0  0  0  0  0  0  0  0  0  0
   12.5490   -7.2452    0.0000 C   0  0  0  0  0  0  0  0  0  0  0  0
   13.2990   -5.9462    0.0000 O   0  0  0  0  0  0  0  0  0  0  0  0
   11.0490   -7.2452    0.0000 C   0  0  0  0  0  0  0  0  0  0  0  0
   10.2990   -5.9462    0.0000 C   0  0  0  0  0  0  0  0  0  0  0  0
    8.7990   -5.9462    0.0000 C   0  0  0  0  0  0  0  0  0  0  0  0
    8.0490   -4.6471    0.0000 C   0  0  0  0  0  0  0  0  0  0  0  0
    6.5490   -4.6471    0.0000 C   0  0  0  0  0  0  0  0  0  0  0  0
    5.7990   -3.3481    0.0000 C   0  0  0  0  0  0  0  0  0  0  0  0
    4.2990   -3.3481    0.0000 N   0  0  0  0  0  0  0  0  0  0  0  0
    3.5490   -2.0490    0.0000 C   0  0  0  0  0  0  0  0  0  0  0  0
    4.2990   -0.7500    0.0000 O   0  0  0  0  0  0  0  0  0  0  0  0
    2.0490   -2.0490    0.0000 C   0  0  0  0  0  0  0  0  0  0  0  0
    0.7500   -2.7990    0.0000 C   0  0  0  0  0  0  0  0  0  0  0  0
    0.7500   -1.2990    0.0000 C   0  0  0  0  0  0  0  0  0  0  0  0
    1.5000    0.0000    0.0000 C   0  0  0  0  0  0  0  0  0  0  0  0
    0.7500    1.2990    0.0000 C   0  0  0  0  0  0  0  0  0  0  0  0
   -0.7500    1.2990    0.0000 N   0  0  0  0  0  0  0  0  0  0  0  0
   -1.5000    2.5981    0.0000 C   0  0  0  0  0  0  0  0  0  0  0  0
   -0.7500    3.8971    0.0000 C   0  0  0  0  0  0  0  0  0  0  0  0
   -1.5000    0.0000    0.0000 C   0  0  0  0  0  0  0  0  0  0  0  0
   -0.7500   -1.2990    0.0000 C   0  0  0  0  0  0  0  0  0  0  0  0
    6.5490   -2.0490    0.0000 C   0  0  0  0  0  0  0  0  0  0  0  0
    5.9389   -0.6787    0.0000 N   0  0  0  0  0  0  0  0  0  0  0  0
    7.0537    0.3250    0.0000 C   0  0  0  0  0  0  0  0  0  0  0  0
    8.3527   -0.4250    0.0000 C   0  0  0  0  0  0  0  0  0  0  0  0
    9.7230    0.1851    0.0000 C   0  0  0  0  0  0  0  0  0  0  0  0
   10.9365   -0.6966    0.0000 C   0  0  0  0  0  0  0  0  0  0  0  0
   12.3069   -0.0865    0.0000 C   0  0  0  0  0  0  0  0  0  0  0  0
   12.4636    1.4053    0.0000 C   0  0  0  0  0  0  0  0  0  0  0  0
   11.2501    2.2870    0.0000 C   0  0  0  0  0  0  0  0  0  0  0  0
   11.4069    3.7788    0.0000 C   0  0  0  0  0  0  0  0  0  0  0  0
   11.5637    5.2705    0.0000 F   0  0  0  0  0  0  0  0  0  0  0  0
   12.8987    3.6220    0.0000 F   0  0  0  0  0  0  0  0  0  0  0  0
    9.9151    3.9355    0.0000 F   0  0  0  0  0  0  0  0  0  0  0  0
    9.8798    1.6769    0.0000 C   0  0  0  0  0  0  0  0  0  0  0  0
    8.6663    2.5585    0.0000 O   0  0  0  0  0  0  0  0  0  0  0  0
    8.8231    4.0503    0.0000 C   0  0  0  0  0  0  0  0  0  0  0  0
    8.0408   -1.8922    0.0000 N   0  0  0  0  0  0  0  0  0  0  0  0
  1  2  1  0
  2  3  1  0
  3  4  2  0
  3  5  1  0
  5  6  1  0
  6  7  1  0
  7  8  1  0
  8  9  1  0
  9 10  1  0
 10 11  1  0
 11 12  1  0
 12 13  2  0
 12 14  1  0
 14 15  1  0
 15 16  1  0
 16 17  1  0
 17 18  1  0
 18 19  1  0
 19 20  1  0
 20 21  1  0
 19 22  1  0
 22 23  1  0
 10 24  1  0
 24 25  2  0
 25 26  1  0
 26 27  2  0
 27 28  1  0
 28 29  2  0
 29 30  1  0
 30 31  2  0
 31 32  1  0
 32 33  1  0
 33 34  1  0
 33 35  1  0
 33 36  1  0
 32 37  2  0
 37 38  1  0
 38 39  1  0
 27 40  1  0
 16 14  1  0
 40 24  1  0
 23 16  1  0
 37 28  1  0
M  END
>  <molecule_chembl_id>  (971) 
CHEMBL4794888

>  <canonical_smiles>  (971) 
CCC(=O)CCCCCC(NC(=O)C1CC12CCN(CC)CC2)c1ncc(-c2cccc(C(F)(F)F)c2OC)[nH]1

>  <pchembl_value_mean>  (971) 
7.2

>  <document_chembl_id>  (971) 
CHEMBL4680369

$$$$

     RDKit          2D

 29 31  0  0  0  0  0  0  0  0999 V2000
    6.0000   -5.1962    0.0000 C   0  0  0  0  0  0  0  0  0  0  0  0
    5.2500   -3.8971    0.0000 O   0  0  0  0  0  0  0  0  0  0  0  0
    3.7500   -3.8971    0.0000 C   0  0  0  0  0  0  0  0  0  0  0  0
    3.0000   -5.1962    0.0000 C   0  0  0  0  0  0  0  0  0  0  0  0
    1.5000   -5.1962    0.0000 C   0  0  0  0  0  0  0  0  0  0  0  0
    0.7500   -3.8971    0.0000 C   0  0  0  0  0  0  0  0  0  0  0  0
    1.5000   -2.5981    0.0000 C   0  0  0  0  0  0  0  0  0  0  0  0
    0.7500   -1.2990    0.0000 C   0  0  0  0  0  0  0  0  0  0  0  0
    1.5000    0.0000    0.0000 C   0  0  0  0  0  0  0  0  0  0  0  0
    0.7500    1.2990    0.0000 C   0  0  0  0  0  0  0  0  0  0  0  0
   -0.7500    1.2990    0.0000 C   0  0  0  0  0  0  0  0  0  0  0  0
   -1.7537    2.4138    0.0000 C   0  0  0  0  0  0  0  0  0  0  0  0
   -1.4418    3.8810    0.0000 N   0  0  0  0  0  0  0  0  0  0  0  0
   -2.5565    4.8847    0.0000 C   0  0  0  0  0  0  0  0  0  0  0  0
   -3.9831    4.4211    0.0000 O   0  0  0  0  0  0  0  0  0  0  0  0
   -2.2447    6.3519    0.0000 C   0  0  0  0  0  0  0  0  0  0  0  0
   -3.3594    7.3556    0.0000 C   0  0  0  0  0  0  0  0  0  0  0  0
   -3.0475    8.8228    0.0000 C   0  0  0  0  0  0  0  0  0  0  0  0
   -4.1622    9.8265    0.0000 C   0  0  0  0  0  0  0  0  0  0  0  0
   -3.8504   11.2937    0.0000 C   0  0  0  0  0  0  0  0  0  0  0  0
   -4.9651   12.2974    0.0000 C   0  0  0  0  0  0  0  0  0  0  0  0
   -6.3917   11.8339    0.0000 O   0  0  0  0  0  0  0  0  0  0  0  0
   -4.6532   13.7646    0.0000 N   0  0  0  0  0  0  0  0  0  0  0  0
   -5.7679   14.7683    0.0000 O   0  0  0  0  0  0  0  0  0  0  0  0
   -3.1240    1.8037    0.0000 N   0  0  0  0  0  0  0  0  0  0  0  0
   -2.9672    0.3119    0.0000 N   0  0  0  0  0  0  0  0  0  0  0  0
   -1.5000    0.0000    0.0000 C   0  0  0  0  0  0  0  0  0  0  0  0
   -0.7500   -1.2990    0.0000 C   0  0  0  0  0  0  0  0  0  0  0  0
    3.0000   -2.5981    0.0000 C   0  0  0  0  0  0  0  0  0  0  0  0
  1  2  1  0
  2  3  1  0
  3  4  2  0
  4  5  1  0
  5  6  2  0
  6  7  1  0
  7  8  1  0
  8  9  2  0
  9 10  1  0
 10 11  2  0
 11 12  1  0
 12 13  1  0
 13 14  1  0
 14 15  2  0
 14 16  1  0
 16 17  1  0
 17 18  1  0
 18 19  1  0
 19 20  1  0
 20 21  1  0
 21 22  2  0
 21 23  1  0
 23 24  1  0
 12 25  2  0
 25 26  1  0
 26 27  1  0
 27 28  2  0
  7 29  2  0
 29  3  1  0
 28  8  1  0
 27 11  1  0
M  END
>  <molecule_chembl_id>  (972) 
CHEMBL4782988

>  <canonical_smiles>  (972) 
COc1cccc(-c2ccc3c(NC(=O)CCCCCC(=O)NO)n[nH]c3c2)c1

>  <pchembl_value_mean>  (972) 
7.2

>  <document_chembl_id>  (972) 
CHEMBL4765277

$$$$

     RDKit          2D

 39 43  0  0  0  0  0  0  0  0999 V2000
   -4.7044  -19.1659    0.0000 N   0  0  0  0  0  0  0  0  0  0  0  0
   -6.0748  -18.5558    0.0000 C   0  0  0  0  0  0  0  0  0  0  0  0
   -7.2883  -19.4375    0.0000 C   0  0  0  0  0  0  0  0  0  0  0  0
   -8.6586  -18.8274    0.0000 C   0  0  0  0  0  0  0  0  0  0  0  0
   -8.8154  -17.3356    0.0000 C   0  0  0  0  0  0  0  0  0  0  0  0
   -7.6019  -16.4539    0.0000 C   0  0  0  0  0  0  0  0  0  0  0  0
   -7.7587  -14.9621    0.0000 F   0  0  0  0  0  0  0  0  0  0  0  0
   -6.2315  -17.0640    0.0000 C   0  0  0  0  0  0  0  0  0  0  0  0
   -5.0180  -16.1823    0.0000 C   0  0  0  0  0  0  0  0  0  0  0  0
   -3.6477  -16.7924    0.0000 O   0  0  0  0  0  0  0  0  0  0  0  0
   -5.1748  -14.6905    0.0000 N   0  0  0  0  0  0  0  0  0  0  0  0
   -3.9613  -13.8089    0.0000 C   0  0  0  0  0  0  0  0  0  0  0  0
   -4.1181  -12.3171    0.0000 C   0  0  0  0  0  0  0  0  0  0  0  0
   -2.9046  -11.4354    0.0000 C   0  0  0  0  0  0  0  0  0  0  0  0
   -3.0613   -9.9436    0.0000 C   0  0  0  0  0  0  0  0  0  0  0  0
   -1.8478   -9.0619    0.0000 C   0  0  0  0  0  0  0  0  0  0  0  0
   -0.4775   -9.6721    0.0000 N   0  0  0  0  0  0  0  0  0  0  0  0
   -0.3207  -11.1638    0.0000 C   0  0  0  0  0  0  0  0  0  0  0  0
   -1.5342  -12.0455    0.0000 O   0  0  0  0  0  0  0  0  0  0  0  0
    1.0496  -11.7739    0.0000 C   0  0  0  0  0  0  0  0  0  0  0  0
    2.3486  -11.0239    0.0000 C   0  0  0  0  0  0  0  0  0  0  0  0
    3.4634  -12.0276    0.0000 N   0  0  0  0  0  0  0  0  0  0  0  0
    2.8533  -13.3980    0.0000 C   0  0  0  0  0  0  0  0  0  0  0  0
    1.3615  -13.2412    0.0000 S   0  0  0  0  0  0  0  0  0  0  0  0
   -2.0046   -7.5702    0.0000 C   0  0  0  0  0  0  0  0  0  0  0  0
   -3.3037   -6.8202    0.0000 N   0  0  0  0  0  0  0  0  0  0  0  0
   -2.9918   -5.3529    0.0000 C   0  0  0  0  0  0  0  0  0  0  0  0
   -1.5000   -5.1962    0.0000 C   0  0  0  0  0  0  0  0  0  0  0  0
   -0.7500   -3.8971    0.0000 C   0  0  0  0  0  0  0  0  0  0  0  0
    0.7500   -3.8971    0.0000 C   0  0  0  0  0  0  0  0  0  0  0  0
    1.5000   -2.5981    0.0000 C   0  0  0  0  0  0  0  0  0  0  0  0
    0.7500   -1.2990    0.0000 C   0  0  0  0  0  0  0  0  0  0  0  0
    1.5000    0.0000    0.0000 C   0  0  0  0  0  0  0  0  0  0  0  0
    0.7500    1.2990    0.0000 C   0  0  0  0  0  0  0  0  0  0  0  0
   -0.7500    1.2990    0.0000 C   0  0  0  0  0  0  0  0  0  0  0  0
   -1.5000    0.0000    0.0000 C   0  0  0  0  0  0  0  0  0  0  0  0
   -0.7500   -1.2990    0.0000 C   0  0  0  0  0  0  0  0  0  0  0  0
   -1.5000   -2.5981    0.0000 C   0  0  0  0  0  0  0  0  0  0  0  0
   -0.8899   -6.5665    0.0000 N   0  0  0  0  0  0  0  0  0  0  0  0
  1  2  1  0
  2  3  2  0
  3  4  1  0
  4  5  2  0
  5  6  1  0
  6  7  1  0
  6  8  2  0
  8  9  1  0
  9 10  2  0
  9 11  1  0
 11 12  1  0
 12 13  1  0
 13 14  1  0
 14 15  1  0
 15 16  1  0
 16 17  1  0
 17 18  1  0
 18 19  2  0
 18 20  1  0
 20 21  2  0
 21 22  1  0
 22 23  2  0
 23 24  1  0
 16 25  1  0
 25 26  2  0
 26 27  1  0
 27 28  2  0
 28 29  1  0
 29 30  2  0
 30 31  1  0
 31 32  2  0
 32 33  1  0
 33 34  2  0
 34 35  1  0
 35 36  2  0
 36 37  1  0
 37 38  2  0
 28 39  1  0
  8  2  1  0
 24 20  1  0
 39 25  1  0
 38 29  1  0
 37 32  1  0
M  END
>  <molecule_chembl_id>  (973) 
CHEMBL4749183

>  <canonical_smiles>  (973) 
Nc1cccc(F)c1C(=O)NCCCCC(NC(=O)c1cncs1)c1ncc(-c2ccc3ccccc3c2)[nH]1

>  <pchembl_value_mean>  (973) 
7.21

>  <document_chembl_id>  (973) 
CHEMBL4725494

$$$$

     RDKit          2D

 26 28  0  0  0  0  0  0  0  0999 V2000
    5.8875   -3.9505    0.0000 N   0  0  0  0  0  0  0  0  0  0  0  0
    4.6740   -4.8322    0.0000 C   0  0  0  0  0  0  0  0  0  0  0  0
    4.8308   -6.3240    0.0000 C   0  0  0  0  0  0  0  0  0  0  0  0
    6.2011   -6.9341    0.0000 C   0  0  0  0  0  0  0  0  0  0  0  0
    6.3579   -8.4259    0.0000 C   0  0  0  0  0  0  0  0  0  0  0  0
    7.7282   -9.0360    0.0000 C   0  0  0  0  0  0  0  0  0  0  0  0
    7.8850  -10.5278    0.0000 C   0  0  0  0  0  0  0  0  0  0  0  0
    9.2553  -11.1379    0.0000 C   0  0  0  0  0  0  0  0  0  0  0  0
   10.4688  -10.2562    0.0000 O   0  0  0  0  0  0  0  0  0  0  0  0
    9.4121  -12.6296    0.0000 C   0  0  0  0  0  0  0  0  0  0  0  0
   10.7111  -13.3796    0.0000 C   0  0  0  0  0  0  0  0  0  0  0  0
   10.3993  -14.8469    0.0000 C   0  0  0  0  0  0  0  0  0  0  0  0
    8.9075  -15.0037    0.0000 O   0  0  0  0  0  0  0  0  0  0  0  0
    8.2974  -13.6333    0.0000 N   0  0  0  0  0  0  0  0  0  0  0  0
    3.3037   -4.2221    0.0000 C   0  0  0  0  0  0  0  0  0  0  0  0
    2.0046   -4.9721    0.0000 C   0  0  0  0  0  0  0  0  0  0  0  0
    0.8899   -3.9684    0.0000 N   0  0  0  0  0  0  0  0  0  0  0  0
    1.5000   -2.5981    0.0000 N   0  0  0  0  0  0  0  0  0  0  0  0
    0.7500   -1.2990    0.0000 C   0  0  0  0  0  0  0  0  0  0  0  0
    1.5000    0.0000    0.0000 C   0  0  0  0  0  0  0  0  0  0  0  0
    0.7500    1.2990    0.0000 C   0  0  0  0  0  0  0  0  0  0  0  0
   -0.7500    1.2990    0.0000 C   0  0  0  0  0  0  0  0  0  0  0  0
   -1.5000    2.5981    0.0000 F   0  0  0  0  0  0  0  0  0  0  0  0
   -1.5000    0.0000    0.0000 C   0  0  0  0  0  0  0  0  0  0  0  0
   -0.7500   -1.2990    0.0000 C   0  0  0  0  0  0  0  0  0  0  0  0
    2.9918   -2.7549    0.0000 C   0  0  0  0  0  0  0  0  0  0  0  0
  1  2  1  0
  2  3  1  0
  3  4  1  0
  4  5  1  0
  5  6  1  0
  6  7  1  0
  7  8  1  0
  8  9  2  0
  8 10  1  0
 10 11  1  0
 11 12  2  0
 12 13  1  0
 13 14  1  0
  2 15  1  0
 15 16  1  0
 16 17  2  0
 17 18  1  0
 18 19  1  0
 19 20  2  0
 20 21  1  0
 21 22  2  0
 22 23  1  0
 22 24  1  0
 24 25  2  0
 18 26  1  0
 14 10  2  0
 26 15  2  0
 25 19  1  0
M  END
>  <molecule_chembl_id>  (974) 
CHEMBL4632449

>  <canonical_smiles>  (974) 
NC(CCCCCC(=O)c1ccon1)c1cnn(-c2ccc(F)cc2)c1

>  <pchembl_value_mean>  (974) 
7.21

>  <document_chembl_id>  (974) 
CHEMBL4622967

$$$$

     RDKit          2D

 23 25  0  0  0  0  0  0  0  0999 V2000
    3.0000    0.0000    0.0000 N   0  0  0  0  0  0  0  0  0  0  0  0
    1.5000    0.0000    0.0000 C   0  0  0  0  0  0  0  0  0  0  0  0
    0.7500   -1.2990    0.0000 C   0  0  0  0  0  0  0  0  0  0  0  0
   -0.7500   -1.2990    0.0000 C   0  0  0  0  0  0  0  0  0  0  0  0
   -1.5000    0.0000    0.0000 C   0  0  0  0  0  0  0  0  0  0  0  0
   -3.0000    0.0000    0.0000 C   0  0  0  0  0  0  0  0  0  0  0  0
   -3.7500    1.2990    0.0000 C   0  0  0  0  0  0  0  0  0  0  0  0
   -5.2500    1.2990    0.0000 C   0  0  0  0  0  0  0  0  0  0  0  0
   -6.0000    0.0000    0.0000 C   0  0  0  0  0  0  0  0  0  0  0  0
   -7.5000    0.0000    0.0000 F   0  0  0  0  0  0  0  0  0  0  0  0
   -5.2500   -1.2990    0.0000 C   0  0  0  0  0  0  0  0  0  0  0  0
   -3.7500   -1.2990    0.0000 C   0  0  0  0  0  0  0  0  0  0  0  0
   -0.7500    1.2990    0.0000 C   0  0  0  0  0  0  0  0  0  0  0  0
    0.7500    1.2990    0.0000 C   0  0  0  0  0  0  0  0  0  0  0  0
    1.5000    2.5981    0.0000 N   0  0  0  0  0  0  0  0  0  0  0  0
    0.7500    3.8971    0.0000 C   0  0  0  0  0  0  0  0  0  0  0  0
   -0.7500    3.8971    0.0000 O   0  0  0  0  0  0  0  0  0  0  0  0
    1.5000    5.1962    0.0000 C   0  0  0  0  0  0  0  0  0  0  0  0
    3.0000    5.1962    0.0000 C   0  0  0  0  0  0  0  0  0  0  0  0
    3.7500    6.4952    0.0000 C   0  0  0  0  0  0  0  0  0  0  0  0
    3.0000    7.7942    0.0000 O   0  0  0  0  0  0  0  0  0  0  0  0
    1.5000    7.7942    0.0000 C   0  0  0  0  0  0  0  0  0  0  0  0
    0.7500    6.4952    0.0000 C   0  0  0  0  0  0  0  0  0  0  0  0
  1  2  1  0
  2  3  2  0
  3  4  1  0
  4  5  2  0
  5  6  1  0
  6  7  2  0
  7  8  1  0
  8  9  2  0
  9 10  1  0
  9 11  1  0
 11 12  2  0
  5 13  1  0
 13 14  2  0
 14 15  1  0
 15 16  1  0
 16 17  2  0
 16 18  1  0
 18 19  1  0
 19 20  1  0
 20 21  1  0
 21 22  1  0
 22 23  1  0
 14  2  1  0
 23 18  1  0
 12  6  1  0
M  END
>  <molecule_chembl_id>  (975) 
CHEMBL3828396

>  <canonical_smiles>  (975) 
Nc1ccc(-c2ccc(F)cc2)cc1NC(=O)C1CCOCC1

>  <pchembl_value_mean>  (975) 
7.21

>  <document_chembl_id>  (975) 
CHEMBL3826926

$$$$

     RDKit          2D

 38 41  0  0  0  0  0  0  0  0999 V2000
   14.7990   -8.5442    0.0000 C   0  0  0  0  0  0  0  0  0  0  0  0
   13.2990   -8.5442    0.0000 C   0  0  0  0  0  0  0  0  0  0  0  0
   12.5490   -7.2452    0.0000 C   0  0  0  0  0  0  0  0  0  0  0  0
   13.2990   -5.9462    0.0000 O   0  0  0  0  0  0  0  0  0  0  0  0
   11.0490   -7.2452    0.0000 C   0  0  0  0  0  0  0  0  0  0  0  0
   10.2990   -5.9462    0.0000 C   0  0  0  0  0  0  0  0  0  0  0  0
    8.7990   -5.9462    0.0000 C   0  0  0  0  0  0  0  0  0  0  0  0
    8.0490   -4.6471    0.0000 C   0  0  0  0  0  0  0  0  0  0  0  0
    6.5490   -4.6471    0.0000 C   0  0  0  0  0  0  0  0  0  0  0  0
    5.7990   -3.3481    0.0000 C   0  0  0  0  0  0  0  0  0  0  0  0
    4.2990   -3.3481    0.0000 N   0  0  0  0  0  0  0  0  0  0  0  0
    3.5490   -2.0490    0.0000 C   0  0  0  0  0  0  0  0  0  0  0  0
    4.2990   -0.7500    0.0000 O   0  0  0  0  0  0  0  0  0  0  0  0
    2.0490   -2.0490    0.0000 C   0  0  0  0  0  0  0  0  0  0  0  0
    0.7500   -2.7990    0.0000 C   0  0  0  0  0  0  0  0  0  0  0  0
    0.7500   -1.2990    0.0000 C   0  0  0  0  0  0  0  0  0  0  0  0
    1.5000    0.0000    0.0000 C   0  0  0  0  0  0  0  0  0  0  0  0
    0.7500    1.2990    0.0000 C   0  0  0  0  0  0  0  0  0  0  0  0
   -0.7500    1.2990    0.0000 N   0  0  0  0  0  0  0  0  0  0  0  0
   -1.5000    2.5981    0.0000 C   0  0  0  0  0  0  0  0  0  0  0  0
   -0.7500    3.8971    0.0000 C   0  0  0  0  0  0  0  0  0  0  0  0
   -1.5000    0.0000    0.0000 C   0  0  0  0  0  0  0  0  0  0  0  0
   -0.7500   -1.2990    0.0000 C   0  0  0  0  0  0  0  0  0  0  0  0
    6.5490   -2.0490    0.0000 C   0  0  0  0  0  0  0  0  0  0  0  0
    5.9389   -0.6787    0.0000 N   0  0  0  0  0  0  0  0  0  0  0  0
    7.0537    0.3250    0.0000 C   0  0  0  0  0  0  0  0  0  0  0  0
    8.3527   -0.4250    0.0000 C   0  0  0  0  0  0  0  0  0  0  0  0
    9.7230    0.1851    0.0000 C   0  0  0  0  0  0  0  0  0  0  0  0
   10.9365   -0.6966    0.0000 C   0  0  0  0  0  0  0  0  0  0  0  0
   12.3069   -0.0865    0.0000 C   0  0  0  0  0  0  0  0  0  0  0  0
   13.5204   -0.9682    0.0000 C   0  0  0  0  0  0  0  0  0  0  0  0
   14.7339   -1.8498    0.0000 N   0  0  0  0  0  0  0  0  0  0  0  0
   12.4636    1.4053    0.0000 C   0  0  0  0  0  0  0  0  0  0  0  0
   11.2501    2.2870    0.0000 C   0  0  0  0  0  0  0  0  0  0  0  0
    9.8798    1.6769    0.0000 C   0  0  0  0  0  0  0  0  0  0  0  0
    8.6663    2.5585    0.0000 O   0  0  0  0  0  0  0  0  0  0  0  0
    8.8231    4.0503    0.0000 C   0  0  0  0  0  0  0  0  0  0  0  0
    8.0408   -1.8922    0.0000 N   0  0  0  0  0  0  0  0  0  0  0  0
  1  2  1  0
  2  3  1  0
  3  4  2  0
  3  5  1  0
  5  6  1  0
  6  7  1  0
  7  8  1  0
  8  9  1  0
  9 10  1  0
 10 11  1  0
 11 12  1  0
 12 13  2  0
 12 14  1  0
 14 15  1  0
 15 16  1  0
 16 17  1  0
 17 18  1  0
 18 19  1  0
 19 20  1  0
 20 21  1  0
 19 22  1  0
 22 23  1  0
 10 24  1  0
 24 25  2  0
 25 26  1  0
 26 27  2  0
 27 28  1  0
 28 29  2  0
 29 30  1  0
 30 31  1  0
 31 32  3  0
 30 33  2  0
 33 34  1  0
 34 35  2  0
 35 36  1  0
 36 37  1  0
 27 38  1  0
 16 14  1  0
 38 24  1  0
 23 16  1  0
 35 28  1  0
M  END
>  <molecule_chembl_id>  (976) 
CHEMBL4797791

>  <canonical_smiles>  (976) 
CCC(=O)CCCCCC(NC(=O)C1CC12CCN(CC)CC2)c1ncc(-c2cc(C#N)ccc2OC)[nH]1

>  <pchembl_value_mean>  (976) 
7.21

>  <document_chembl_id>  (976) 
CHEMBL4680369

$$$$

     RDKit          2D

 31 32  0  0  0  0  0  0  0  0999 V2000
    3.0000    0.0000    0.0000 C   0  0  0  0  0  0  0  0  0  0  0  0
    1.5000    0.0000    0.0000 C   0  0  0  0  0  0  0  0  0  0  0  0
    0.7500   -1.2990    0.0000 C   0  0  0  0  0  0  0  0  0  0  0  0
   -0.7500   -1.2990    0.0000 C   0  0  0  0  0  0  0  0  0  0  0  0
   -1.5000   -2.5981    0.0000 C   0  0  0  0  0  0  0  0  0  0  0  0
   -1.5000    0.0000    0.0000 C   0  0  0  0  0  0  0  0  0  0  0  0
   -0.7500    1.2990    0.0000 C   0  0  0  0  0  0  0  0  0  0  0  0
   -1.5000    2.5981    0.0000 C   0  0  0  0  0  0  0  0  0  0  0  0
   -3.0000    2.5981    0.0000 O   0  0  0  0  0  0  0  0  0  0  0  0
   -0.7500    3.8971    0.0000 N   0  0  0  0  0  0  0  0  0  0  0  0
   -1.5000    5.1962    0.0000 C   0  0  0  0  0  0  0  0  0  0  0  0
   -0.7500    6.4952    0.0000 C   0  0  0  0  0  0  0  0  0  0  0  0
   -1.5000    7.7942    0.0000 C   0  0  0  0  0  0  0  0  0  0  0  0
   -0.7500    9.0933    0.0000 C   0  0  0  0  0  0  0  0  0  0  0  0
   -1.5000   10.3923    0.0000 C   0  0  0  0  0  0  0  0  0  0  0  0
   -0.7500   11.6913    0.0000 C   0  0  0  0  0  0  0  0  0  0  0  0
    0.7500   11.6913    0.0000 O   0  0  0  0  0  0  0  0  0  0  0  0
   -1.5000   12.9904    0.0000 N   0  0  0  0  0  0  0  0  0  0  0  0
   -0.7500   14.2894    0.0000 O   0  0  0  0  0  0  0  0  0  0  0  0
    0.7500    3.8971    0.0000 C   0  0  0  0  0  0  0  0  0  0  0  0
    1.5000    5.1962    0.0000 C   0  0  0  0  0  0  0  0  0  0  0  0
    0.7500    6.4952    0.0000 O   0  0  0  0  0  0  0  0  0  0  0  0
    3.0000    5.1962    0.0000 N   0  0  0  0  0  0  0  0  0  0  0  0
    3.7500    6.4952    0.0000 C   0  0  0  0  0  0  0  0  0  0  0  0
    5.2500    6.4952    0.0000 C   0  0  0  0  0  0  0  0  0  0  0  0
    6.0000    5.1962    0.0000 C   0  0  0  0  0  0  0  0  0  0  0  0
    7.5000    5.1962    0.0000 C   0  0  0  0  0  0  0  0  0  0  0  0
    8.2500    6.4952    0.0000 C   0  0  0  0  0  0  0  0  0  0  0  0
    7.5000    7.7942    0.0000 C   0  0  0  0  0  0  0  0  0  0  0  0
    6.0000    7.7942    0.0000 C   0  0  0  0  0  0  0  0  0  0  0  0
    0.7500    1.2990    0.0000 C   0  0  0  0  0  0  0  0  0  0  0  0
  1  2  1  0
  2  3  2  0
  3  4  1  0
  4  5  1  0
  4  6  2  0
  6  7  1  0
  7  8  1  0
  8  9  2  0
  8 10  1  0
 10 11  1  0
 11 12  1  0
 12 13  1  0
 13 14  1  0
 14 15  1  0
 15 16  1  0
 16 17  2  0
 16 18  1  0
 18 19  1  0
 10 20  1  0
 20 21  1  0
 21 22  2  0
 21 23  1  0
 23 24  1  0
 24 25  1  0
 25 26  2  0
 26 27  1  0
 27 28  2  0
 28 29  1  0
 29 30  2  0
  7 31  2  0
 31  2  1  0
 30 25  1  0
M  END
>  <molecule_chembl_id>  (977) 
CHEMBL4090647

>  <canonical_smiles>  (977) 
Cc1cc(C)cc(C(=O)N(CCCCCC(=O)NO)CC(=O)NCc2ccccc2)c1

>  <pchembl_value_mean>  (977) 
7.21

>  <document_chembl_id>  (977) 
CHEMBL4014348

$$$$

     RDKit          2D

 22 24  0  0  0  0  0  0  0  0999 V2000
    3.7500    1.2990    0.0000 O   0  0  0  0  0  0  0  0  0  0  0  0
    3.0000    0.0000    0.0000 C   0  0  0  0  0  0  0  0  0  0  0  0
    3.7500   -1.2990    0.0000 N   0  0  0  0  0  0  0  0  0  0  0  0
    5.2500   -1.2990    0.0000 O   0  0  0  0  0  0  0  0  0  0  0  0
    1.5000    0.0000    0.0000 C   0  0  0  0  0  0  0  0  0  0  0  0
    0.7500   -1.2990    0.0000 C   0  0  0  0  0  0  0  0  0  0  0  0
   -0.7500   -1.2990    0.0000 N   0  0  0  0  0  0  0  0  0  0  0  0
   -1.5000    0.0000    0.0000 C   0  0  0  0  0  0  0  0  0  0  0  0
   -3.0000    0.0000    0.0000 N   0  0  0  0  0  0  0  0  0  0  0  0
   -3.7500    1.2990    0.0000 C   0  0  0  0  0  0  0  0  0  0  0  0
   -5.1595    0.7860    0.0000 C   0  0  0  0  0  0  0  0  0  0  0  0
   -5.4200   -0.6912    0.0000 C   0  0  0  0  0  0  0  0  0  0  0  0
   -6.8296   -1.2042    0.0000 C   0  0  0  0  0  0  0  0  0  0  0  0
   -7.9786   -0.2401    0.0000 C   0  0  0  0  0  0  0  0  0  0  0  0
   -9.3882   -0.7531    0.0000 F   0  0  0  0  0  0  0  0  0  0  0  0
   -7.7181    1.2372    0.0000 C   0  0  0  0  0  0  0  0  0  0  0  0
   -8.8672    2.2013    0.0000 F   0  0  0  0  0  0  0  0  0  0  0  0
   -6.3086    1.7502    0.0000 C   0  0  0  0  0  0  0  0  0  0  0  0
   -4.0105    2.7762    0.0000 C   0  0  0  0  0  0  0  0  0  0  0  0
   -2.6009    2.2632    0.0000 C   0  0  0  0  0  0  0  0  0  0  0  0
   -0.7500    1.2990    0.0000 N   0  0  0  0  0  0  0  0  0  0  0  0
    0.7500    1.2990    0.0000 C   0  0  0  0  0  0  0  0  0  0  0  0
  1  2  2  0
  2  3  1  0
  3  4  1  0
  2  5  1  0
  5  6  2  0
  6  7  1  0
  7  8  2  0
  8  9  1  0
  9 10  1  0
 10 11  1  0
 11 12  2  0
 12 13  1  0
 13 14  2  0
 14 15  1  0
 14 16  1  0
 16 17  1  0
 16 18  2  0
 10 19  1  0
 19 20  1  0
  8 21  1  0
 21 22  2  0
 22  5  1  0
 20 10  1  0
 18 11  1  0
M  END
>  <molecule_chembl_id>  (978) 
CHEMBL3656009

>  <canonical_smiles>  (978) 
O=C(NO)c1cnc(NC2(c3ccc(F)c(F)c3)CC2)nc1

>  <pchembl_value_mean>  (978) 
7.21

>  <document_chembl_id>  (978) 
CHEMBL3639071

$$$$

     RDKit          2D

 28 30  0  0  0  0  0  0  0  0999 V2000
    6.0000   -5.1962    0.0000 C   0  0  0  0  0  0  0  0  0  0  0  0
    5.2500   -3.8971    0.0000 O   0  0  0  0  0  0  0  0  0  0  0  0
    3.7500   -3.8971    0.0000 C   0  0  0  0  0  0  0  0  0  0  0  0
    3.0000   -5.1962    0.0000 C   0  0  0  0  0  0  0  0  0  0  0  0
    1.5000   -5.1962    0.0000 C   0  0  0  0  0  0  0  0  0  0  0  0
    0.7500   -3.8971    0.0000 C   0  0  0  0  0  0  0  0  0  0  0  0
    1.5000   -2.5981    0.0000 C   0  0  0  0  0  0  0  0  0  0  0  0
    0.7500   -1.2990    0.0000 C   0  0  0  0  0  0  0  0  0  0  0  0
    1.5000    0.0000    0.0000 C   0  0  0  0  0  0  0  0  0  0  0  0
    0.7500    1.2990    0.0000 C   0  0  0  0  0  0  0  0  0  0  0  0
   -0.7500    1.2990    0.0000 C   0  0  0  0  0  0  0  0  0  0  0  0
   -1.7537    2.4138    0.0000 C   0  0  0  0  0  0  0  0  0  0  0  0
   -1.4418    3.8810    0.0000 N   0  0  0  0  0  0  0  0  0  0  0  0
   -2.5565    4.8847    0.0000 C   0  0  0  0  0  0  0  0  0  0  0  0
   -3.9831    4.4211    0.0000 O   0  0  0  0  0  0  0  0  0  0  0  0
   -2.2447    6.3519    0.0000 C   0  0  0  0  0  0  0  0  0  0  0  0
   -3.3594    7.3556    0.0000 C   0  0  0  0  0  0  0  0  0  0  0  0
   -3.0475    8.8228    0.0000 C   0  0  0  0  0  0  0  0  0  0  0  0
   -4.1622    9.8265    0.0000 C   0  0  0  0  0  0  0  0  0  0  0  0
   -3.8504   11.2937    0.0000 C   0  0  0  0  0  0  0  0  0  0  0  0
   -2.4238   11.7573    0.0000 O   0  0  0  0  0  0  0  0  0  0  0  0
   -4.9651   12.2974    0.0000 N   0  0  0  0  0  0  0  0  0  0  0  0
   -4.6532   13.7646    0.0000 O   0  0  0  0  0  0  0  0  0  0  0  0
   -3.1240    1.8037    0.0000 N   0  0  0  0  0  0  0  0  0  0  0  0
   -2.9672    0.3119    0.0000 N   0  0  0  0  0  0  0  0  0  0  0  0
   -1.5000    0.0000    0.0000 C   0  0  0  0  0  0  0  0  0  0  0  0
   -0.7500   -1.2990    0.0000 C   0  0  0  0  0  0  0  0  0  0  0  0
    3.0000   -2.5981    0.0000 C   0  0  0  0  0  0  0  0  0  0  0  0
  1  2  1  0
  2  3  1  0
  3  4  2  0
  4  5  1  0
  5  6  2  0
  6  7  1  0
  7  8  1  0
  8  9  2  0
  9 10  1  0
 10 11  2  0
 11 12  1  0
 12 13  1  0
 13 14  1  0
 14 15  2  0
 14 16  1  0
 16 17  1  0
 17 18  1  0
 18 19  1  0
 19 20  1  0
 20 21  2  0
 20 22  1  0
 22 23  1  0
 12 24  2  0
 24 25  1  0
 25 26  1  0
 26 27  2  0
  7 28  2  0
 28  3  1  0
 27  8  1  0
 26 11  1  0
M  END
>  <molecule_chembl_id>  (979) 
CHEMBL4797623

>  <canonical_smiles>  (979) 
COc1cccc(-c2ccc3c(NC(=O)CCCCC(=O)NO)n[nH]c3c2)c1

>  <pchembl_value_mean>  (979) 
7.21

>  <document_chembl_id>  (979) 
CHEMBL4765277

$$$$

     RDKit          2D

 41 45  0  0  0  0  0  0  0  0999 V2000
   14.7990   -8.5442    0.0000 C   0  0  0  0  0  0  0  0  0  0  0  0
   13.2990   -8.5442    0.0000 C   0  0  0  0  0  0  0  0  0  0  0  0
   12.5490   -7.2452    0.0000 C   0  0  0  0  0  0  0  0  0  0  0  0
   13.2990   -5.9462    0.0000 O   0  0  0  0  0  0  0  0  0  0  0  0
   11.0490   -7.2452    0.0000 C   0  0  0  0  0  0  0  0  0  0  0  0
   10.2990   -5.9462    0.0000 C   0  0  0  0  0  0  0  0  0  0  0  0
    8.7990   -5.9462    0.0000 C   0  0  0  0  0  0  0  0  0  0  0  0
    8.0490   -4.6471    0.0000 C   0  0  0  0  0  0  0  0  0  0  0  0
    6.5490   -4.6471    0.0000 C   0  0  0  0  0  0  0  0  0  0  0  0
    5.7990   -3.3481    0.0000 C   0  0  0  0  0  0  0  0  0  0  0  0
    4.2990   -3.3481    0.0000 N   0  0  0  0  0  0  0  0  0  0  0  0
    3.5490   -2.0490    0.0000 C   0  0  0  0  0  0  0  0  0  0  0  0
    4.2990   -0.7500    0.0000 O   0  0  0  0  0  0  0  0  0  0  0  0
    2.0490   -2.0490    0.0000 C   0  0  0  0  0  0  0  0  0  0  0  0
    0.7500   -2.7990    0.0000 C   0  0  0  0  0  0  0  0  0  0  0  0
    0.7500   -1.2990    0.0000 C   0  0  0  0  0  0  0  0  0  0  0  0
    1.5000    0.0000    0.0000 C   0  0  0  0  0  0  0  0  0  0  0  0
    0.7500    1.2990    0.0000 C   0  0  0  0  0  0  0  0  0  0  0  0
   -0.7500    1.2990    0.0000 N   0  0  0  0  0  0  0  0  0  0  0  0
   -1.5000    2.5981    0.0000 C   0  0  0  0  0  0  0  0  0  0  0  0
   -1.5000    0.0000    0.0000 C   0  0  0  0  0  0  0  0  0  0  0  0
   -0.7500   -1.2990    0.0000 C   0  0  0  0  0  0  0  0  0  0  0  0
    6.5490   -2.0490    0.0000 C   0  0  0  0  0  0  0  0  0  0  0  0
    5.9389   -0.6787    0.0000 N   0  0  0  0  0  0  0  0  0  0  0  0
    7.0537    0.3250    0.0000 C   0  0  0  0  0  0  0  0  0  0  0  0
    8.3527   -0.4250    0.0000 C   0  0  0  0  0  0  0  0  0  0  0  0
    9.7230    0.1851    0.0000 C   0  0  0  0  0  0  0  0  0  0  0  0
   10.9365   -0.6966    0.0000 C   0  0  0  0  0  0  0  0  0  0  0  0
   12.3069   -0.0865    0.0000 C   0  0  0  0  0  0  0  0  0  0  0  0
   12.4636    1.4053    0.0000 C   0  0  0  0  0  0  0  0  0  0  0  0
   13.8340    2.0154    0.0000 C   0  0  0  0  0  0  0  0  0  0  0  0
   13.9908    3.5072    0.0000 O   0  0  0  0  0  0  0  0  0  0  0  0
   15.0475    1.1337    0.0000 N   0  0  0  0  0  0  0  0  0  0  0  0
   16.4178    1.7438    0.0000 C   0  0  0  0  0  0  0  0  0  0  0  0
   16.7297    3.2110    0.0000 C   0  0  0  0  0  0  0  0  0  0  0  0
   18.2215    3.3678    0.0000 C   0  0  0  0  0  0  0  0  0  0  0  0
   18.8316    1.9975    0.0000 O   0  0  0  0  0  0  0  0  0  0  0  0
   17.7168    0.9938    0.0000 C   0  0  0  0  0  0  0  0  0  0  0  0
   11.2501    2.2870    0.0000 C   0  0  0  0  0  0  0  0  0  0  0  0
    9.8798    1.6769    0.0000 C   0  0  0  0  0  0  0  0  0  0  0  0
    8.0408   -1.8922    0.0000 N   0  0  0  0  0  0  0  0  0  0  0  0
  1  2  1  0
  2  3  1  0
  3  4  2  0
  3  5  1  0
  5  6  1  0
  6  7  1  0
  7  8  1  0
  8  9  1  0
  9 10  1  0
 10 11  1  0
 11 12  1  0
 12 13  2  0
 12 14  1  0
 14 15  1  0
 15 16  1  0
 16 17  1  0
 17 18  1  0
 18 19  1  0
 19 20  1  0
 19 21  1  0
 21 22  1  0
 10 23  1  0
 23 24  2  0
 24 25  1  0
 25 26  2  0
 26 27  1  0
 27 28  2  0
 28 29  1  0
 29 30  2  0
 30 31  1  0
 31 32  2  0
 31 33  1  0
 33 34  1  0
 34 35  1  0
 35 36  1  0
 36 37  1  0
 37 38  1  0
 30 39  1  0
 39 40  2  0
 26 41  1  0
 16 14  1  0
 41 23  1  0
 22 16  1  0
 40 27  1  0
 38 34  1  0
M  END
>  <molecule_chembl_id>  (980) 
CHEMBL4761389

>  <canonical_smiles>  (980) 
CCC(=O)CCCCCC(NC(=O)C1CC12CCN(C)CC2)c1ncc(-c2ccc(C(=O)NC3CCOC3)cc2)[nH]1

>  <pchembl_value_mean>  (980) 
7.215

>  <document_chembl_id>  (980) 
CHEMBL4680369

$$$$

     RDKit          2D

 27 29  0  0  0  0  0  0  0  0999 V2000
  -15.0000   -2.5981    0.0000 C   0  0  0  0  0  0  0  0  0  0  0  0
  -14.2500   -3.8971    0.0000 C   0  0  0  0  0  0  0  0  0  0  0  0
  -12.7500   -3.8971    0.0000 C   0  0  0  0  0  0  0  0  0  0  0  0
  -12.0000   -5.1962    0.0000 N   0  0  0  0  0  0  0  0  0  0  0  0
  -10.5000   -5.1962    0.0000 N   0  0  0  0  0  0  0  0  0  0  0  0
   -9.7500   -6.4952    0.0000 C   0  0  0  0  0  0  0  0  0  0  0  0
  -10.5000   -7.7942    0.0000 O   0  0  0  0  0  0  0  0  0  0  0  0
   -8.2500   -6.4952    0.0000 C   0  0  0  0  0  0  0  0  0  0  0  0
   -7.5000   -5.1962    0.0000 C   0  0  0  0  0  0  0  0  0  0  0  0
   -6.0000   -5.1962    0.0000 C   0  0  0  0  0  0  0  0  0  0  0  0
   -5.2500   -6.4952    0.0000 C   0  0  0  0  0  0  0  0  0  0  0  0
   -3.7500   -6.4952    0.0000 C   0  0  0  0  0  0  0  0  0  0  0  0
   -3.0000   -5.1962    0.0000 N   0  0  0  0  0  0  0  0  0  0  0  0
   -1.5000   -5.1962    0.0000 C   0  0  0  0  0  0  0  0  0  0  0  0
   -0.7500   -6.4952    0.0000 O   0  0  0  0  0  0  0  0  0  0  0  0
   -0.7500   -3.8971    0.0000 C   0  0  0  0  0  0  0  0  0  0  0  0
    0.7500   -3.8971    0.0000 C   0  0  0  0  0  0  0  0  0  0  0  0
    1.5000   -2.5981    0.0000 N   0  0  0  0  0  0  0  0  0  0  0  0
    0.7500   -1.2990    0.0000 C   0  0  0  0  0  0  0  0  0  0  0  0
    1.5000    0.0000    0.0000 C   0  0  0  0  0  0  0  0  0  0  0  0
    0.7500    1.2990    0.0000 C   0  0  0  0  0  0  0  0  0  0  0  0
   -0.7500    1.2990    0.0000 C   0  0  0  0  0  0  0  0  0  0  0  0
   -1.5000    0.0000    0.0000 C   0  0  0  0  0  0  0  0  0  0  0  0
   -0.7500   -1.2990    0.0000 C   0  0  0  0  0  0  0  0  0  0  0  0
   -1.5000   -2.5981    0.0000 C   0  0  0  0  0  0  0  0  0  0  0  0
   -6.0000   -7.7942    0.0000 C   0  0  0  0  0  0  0  0  0  0  0  0
   -7.5000   -7.7942    0.0000 C   0  0  0  0  0  0  0  0  0  0  0  0
  1  2  1  0
  2  3  1  0
  3  4  1  0
  4  5  1  0
  5  6  1  0
  6  7  2  0
  6  8  1  0
  8  9  2  0
  9 10  1  0
 10 11  2  0
 11 12  1  0
 12 13  1  0
 13 14  1  0
 14 15  2  0
 14 16  1  0
 16 17  2  0
 17 18  1  0
 18 19  2  0
 19 20  1  0
 20 21  2  0
 21 22  1  0
 22 23  2  0
 23 24  1  0
 24 25  2  0
 11 26  1  0
 26 27  2  0
 27  8  1  0
 25 16  1  0
 24 19  1  0
M  END
>  <molecule_chembl_id>  (981) 
CHEMBL5073024

>  <canonical_smiles>  (981) 
CCCNNC(=O)c1ccc(CNC(=O)c2cnc3ccccc3c2)cc1

>  <pchembl_value_mean>  (981) 
7.22

>  <document_chembl_id>  (981) 
CHEMBL5042504

$$$$

     RDKit          2D

 33 36  0  0  0  0  0  0  0  0999 V2000
    3.7500   -1.2990    0.0000 C   0  0  0  0  0  0  0  0  0  0  0  0
    3.0000    0.0000    0.0000 O   0  0  0  0  0  0  0  0  0  0  0  0
    1.5000    0.0000    0.0000 C   0  0  0  0  0  0  0  0  0  0  0  0
    0.7500   -1.2990    0.0000 C   0  0  0  0  0  0  0  0  0  0  0  0
   -0.7500   -1.2990    0.0000 C   0  0  0  0  0  0  0  0  0  0  0  0
   -1.5000    0.0000    0.0000 C   0  0  0  0  0  0  0  0  0  0  0  0
   -3.0000    0.0000    0.0000 N   0  0  0  0  0  0  0  0  0  0  0  0
   -3.7500    1.2990    0.0000 C   0  0  0  0  0  0  0  0  0  0  0  0
   -5.2500    1.2990    0.0000 C   0  0  0  0  0  0  0  0  0  0  0  0
   -6.0000    2.5981    0.0000 C   0  0  0  0  0  0  0  0  0  0  0  0
   -7.5000    2.5981    0.0000 C   0  0  0  0  0  0  0  0  0  0  0  0
   -8.2500    1.2990    0.0000 C   0  0  0  0  0  0  0  0  0  0  0  0
   -9.7500    1.2990    0.0000 C   0  0  0  0  0  0  0  0  0  0  0  0
  -10.5000    0.0000    0.0000 O   0  0  0  0  0  0  0  0  0  0  0  0
  -10.5000    2.5981    0.0000 N   0  0  0  0  0  0  0  0  0  0  0  0
  -12.0000    2.5981    0.0000 C   0  0  0  0  0  0  0  0  0  0  0  0
  -12.7500    3.8971    0.0000 C   0  0  0  0  0  0  0  0  0  0  0  0
  -14.2500    3.8971    0.0000 C   0  0  0  0  0  0  0  0  0  0  0  0
  -15.0000    5.1962    0.0000 C   0  0  0  0  0  0  0  0  0  0  0  0
  -16.4918    5.3529    0.0000 C   0  0  0  0  0  0  0  0  0  0  0  0
  -16.8037    6.8202    0.0000 C   0  0  0  0  0  0  0  0  0  0  0  0
  -15.5046    7.5702    0.0000 C   0  0  0  0  0  0  0  0  0  0  0  0
  -14.3899    6.5665    0.0000 S   0  0  0  0  0  0  0  0  0  0  0  0
  -15.0000    2.5981    0.0000 C   0  0  0  0  0  0  0  0  0  0  0  0
  -14.2500    1.2990    0.0000 C   0  0  0  0  0  0  0  0  0  0  0  0
  -12.7500    1.2990    0.0000 C   0  0  0  0  0  0  0  0  0  0  0  0
  -12.0000    0.0000    0.0000 O   0  0  0  0  0  0  0  0  0  0  0  0
   -7.5000    0.0000    0.0000 C   0  0  0  0  0  0  0  0  0  0  0  0
   -6.0000    0.0000    0.0000 C   0  0  0  0  0  0  0  0  0  0  0  0
   -0.7500    1.2990    0.0000 C   0  0  0  0  0  0  0  0  0  0  0  0
    0.7500    1.2990    0.0000 C   0  0  0  0  0  0  0  0  0  0  0  0
    1.5000    2.5981    0.0000 O   0  0  0  0  0  0  0  0  0  0  0  0
    0.7500    3.8971    0.0000 C   0  0  0  0  0  0  0  0  0  0  0  0
  1  2  1  0
  2  3  1  0
  3  4  2  0
  4  5  1  0
  5  6  2  0
  6  7  1  0
  7  8  1  0
  8  9  1  0
  9 10  2  0
 10 11  1  0
 11 12  2  0
 12 13  1  0
 13 14  2  0
 13 15  1  0
 15 16  1  0
 16 17  2  0
 17 18  1  0
 18 19  1  0
 19 20  2  0
 20 21  1  0
 21 22  2  0
 22 23  1  0
 18 24  2  0
 24 25  1  0
 25 26  2  0
 26 27  1  0
 12 28  1  0
 28 29  2  0
  6 30  1  0
 30 31  2  0
 31 32  1  0
 32 33  1  0
 31  3  1  0
 29  9  1  0
 26 16  1  0
 23 19  1  0
M  END
>  <molecule_chembl_id>  (982) 
CHEMBL235413

>  <canonical_smiles>  (982) 
COc1ccc(NCc2ccc(C(=O)Nc3cc(-c4cccs4)ccc3O)cc2)cc1OC

>  <pchembl_value_mean>  (982) 
7.22

>  <document_chembl_id>  (982) 
CHEMBL1138236

$$$$

     RDKit          2D

 31 33  0  0  0  0  0  0  0  0999 V2000
   12.7500   -3.8971    0.0000 O   0  0  0  0  0  0  0  0  0  0  0  0
   12.0000   -5.1962    0.0000 C   0  0  0  0  0  0  0  0  0  0  0  0
   10.5000   -5.1962    0.0000 C   0  0  0  0  0  0  0  0  0  0  0  0
    9.7500   -3.8971    0.0000 C   0  0  0  0  0  0  0  0  0  0  0  0
    8.2500   -3.8971    0.0000 C   0  0  0  0  0  0  0  0  0  0  0  0
    7.5000   -2.5981    0.0000 C   0  0  0  0  0  0  0  0  0  0  0  0
    6.0000   -2.5981    0.0000 C   0  0  0  0  0  0  0  0  0  0  0  0
    5.2500   -1.2990    0.0000 C   0  0  0  0  0  0  0  0  0  0  0  0
    3.7500   -1.2990    0.0000 C   0  0  0  0  0  0  0  0  0  0  0  0
    3.0000   -2.5981    0.0000 O   0  0  0  0  0  0  0  0  0  0  0  0
    3.0000    0.0000    0.0000 N   0  0  0  0  0  0  0  0  0  0  0  0
    1.5000    0.0000    0.0000 C   0  0  0  0  0  0  0  0  0  0  0  0
    0.7500   -1.2990    0.0000 C   0  0  0  0  0  0  0  0  0  0  0  0
   -0.7500   -1.2990    0.0000 C   0  0  0  0  0  0  0  0  0  0  0  0
   -1.5000    0.0000    0.0000 C   0  0  0  0  0  0  0  0  0  0  0  0
   -0.7500    1.2990    0.0000 C   0  0  0  0  0  0  0  0  0  0  0  0
   -1.5000    2.5981    0.0000 C   0  0  0  0  0  0  0  0  0  0  0  0
   -2.9918    2.7549    0.0000 C   0  0  0  0  0  0  0  0  0  0  0  0
   -3.3037    4.2221    0.0000 N   0  0  0  0  0  0  0  0  0  0  0  0
   -4.6740    4.8322    0.0000 C   0  0  0  0  0  0  0  0  0  0  0  0
   -4.8308    6.3240    0.0000 C   0  0  0  0  0  0  0  0  0  0  0  0
   -6.2011    6.9341    0.0000 C   0  0  0  0  0  0  0  0  0  0  0  0
   -7.4146    6.0524    0.0000 C   0  0  0  0  0  0  0  0  0  0  0  0
   -8.7849    6.6625    0.0000 F   0  0  0  0  0  0  0  0  0  0  0  0
   -7.2578    4.5606    0.0000 C   0  0  0  0  0  0  0  0  0  0  0  0
   -5.8875    3.9505    0.0000 C   0  0  0  0  0  0  0  0  0  0  0  0
   -2.0046    4.9721    0.0000 N   0  0  0  0  0  0  0  0  0  0  0  0
   -0.8899    3.9684    0.0000 N   0  0  0  0  0  0  0  0  0  0  0  0
    0.7500    1.2990    0.0000 C   0  0  0  0  0  0  0  0  0  0  0  0
   12.7500   -6.4952    0.0000 N   0  0  0  0  0  0  0  0  0  0  0  0
   14.2500   -6.4952    0.0000 O   0  0  0  0  0  0  0  0  0  0  0  0
  1  2  2  0
  2  3  1  0
  3  4  1  0
  4  5  1  0
  5  6  1  0
  6  7  1  0
  7  8  1  0
  8  9  1  0
  9 10  2  0
  9 11  1  0
 11 12  1  0
 12 13  2  0
 13 14  1  0
 14 15  2  0
 15 16  1  0
 16 17  1  0
 17 18  2  0
 18 19  1  0
 19 20  1  0
 20 21  2  0
 21 22  1  0
 22 23  2  0
 23 24  1  0
 23 25  1  0
 25 26  2  0
 19 27  1  0
 27 28  2  0
 16 29  2  0
  2 30  1  0
 30 31  1  0
 29 12  1  0
 28 17  1  0
 26 20  1  0
M  END
>  <molecule_chembl_id>  (983) 
CHEMBL1091474

>  <canonical_smiles>  (983) 
O=C(CCCCCCC(=O)Nc1cccc(-c2cn(-c3ccc(F)cc3)nn2)c1)NO

>  <pchembl_value_mean>  (983) 
7.22

>  <document_chembl_id>  (983) 
CHEMBL1154884

$$$$

     RDKit          2D

 38 41  0  0  0  0  0  0  0  0999 V2000
    1.9979  -12.6093    0.0000 C   0  0  0  0  0  0  0  0  0  0  0  0
    2.3097  -11.1421    0.0000 O   0  0  0  0  0  0  0  0  0  0  0  0
    1.1950  -10.1384    0.0000 C   0  0  0  0  0  0  0  0  0  0  0  0
   -0.2316  -10.6019    0.0000 C   0  0  0  0  0  0  0  0  0  0  0  0
   -1.3463   -9.5982    0.0000 C   0  0  0  0  0  0  0  0  0  0  0  0
   -1.0344   -8.1310    0.0000 C   0  0  0  0  0  0  0  0  0  0  0  0
   -2.1491   -7.1273    0.0000 C   0  0  0  0  0  0  0  0  0  0  0  0
   -3.5757   -7.5908    0.0000 O   0  0  0  0  0  0  0  0  0  0  0  0
   -1.8373   -5.6601    0.0000 N   0  0  0  0  0  0  0  0  0  0  0  0
   -2.9520   -4.6564    0.0000 C   0  0  0  0  0  0  0  0  0  0  0  0
   -4.3786   -5.1199    0.0000 C   0  0  0  0  0  0  0  0  0  0  0  0
   -4.6904   -6.5871    0.0000 O   0  0  0  0  0  0  0  0  0  0  0  0
   -6.1170   -7.0506    0.0000 C   0  0  0  0  0  0  0  0  0  0  0  0
   -7.2317   -6.0469    0.0000 C   0  0  0  0  0  0  0  0  0  0  0  0
   -8.6583   -6.5105    0.0000 C   0  0  0  0  0  0  0  0  0  0  0  0
   -8.9702   -7.9777    0.0000 C   0  0  0  0  0  0  0  0  0  0  0  0
  -10.3968   -8.4412    0.0000 C   0  0  0  0  0  0  0  0  0  0  0  0
  -11.5115   -7.4375    0.0000 C   0  0  0  0  0  0  0  0  0  0  0  0
  -12.9381   -7.9010    0.0000 C   0  0  0  0  0  0  0  0  0  0  0  0
  -13.2499   -9.3683    0.0000 O   0  0  0  0  0  0  0  0  0  0  0  0
  -14.0528   -6.8974    0.0000 N   0  0  0  0  0  0  0  0  0  0  0  0
  -15.4794   -7.3609    0.0000 O   0  0  0  0  0  0  0  0  0  0  0  0
   -7.8555   -8.9814    0.0000 C   0  0  0  0  0  0  0  0  0  0  0  0
   -6.4289   -8.5179    0.0000 C   0  0  0  0  0  0  0  0  0  0  0  0
   -5.3142   -9.5216    0.0000 O   0  0  0  0  0  0  0  0  0  0  0  0
   -5.6260  -10.9888    0.0000 C   0  0  0  0  0  0  0  0  0  0  0  0
   -2.6401   -3.1891    0.0000 C   0  0  0  0  0  0  0  0  0  0  0  0
   -1.2135   -2.7256    0.0000 C   0  0  0  0  0  0  0  0  0  0  0  0
   -0.0000   -3.6073    0.0000 C   0  0  0  0  0  0  0  0  0  0  0  0
    1.2135   -2.7256    0.0000 N   0  0  0  0  0  0  0  0  0  0  0  0
    0.7500   -1.2990    0.0000 C   0  0  0  0  0  0  0  0  0  0  0  0
    1.5000    0.0000    0.0000 C   0  0  0  0  0  0  0  0  0  0  0  0
    0.7500    1.2990    0.0000 C   0  0  0  0  0  0  0  0  0  0  0  0
   -0.7500    1.2990    0.0000 C   0  0  0  0  0  0  0  0  0  0  0  0
   -1.5000    0.0000    0.0000 C   0  0  0  0  0  0  0  0  0  0  0  0
   -0.7500   -1.2990    0.0000 C   0  0  0  0  0  0  0  0  0  0  0  0
    0.3922   -7.6675    0.0000 C   0  0  0  0  0  0  0  0  0  0  0  0
    1.5069   -8.6712    0.0000 C   0  0  0  0  0  0  0  0  0  0  0  0
  1  2  1  0
  2  3  1  0
  3  4  2  0
  4  5  1  0
  5  6  2  0
  6  7  1  0
  7  8  2  0
  7  9  1  0
  9 10  1  0
 10 11  1  0
 11 12  1  0
 12 13  1  0
 13 14  2  0
 14 15  1  0
 15 16  2  0
 16 17  1  0
 17 18  2  3
 18 19  1  0
 19 20  2  0
 19 21  1  0
 21 22  1  0
 16 23  1  0
 23 24  2  0
 24 25  1  0
 25 26  1  0
 10 27  1  0
 27 28  1  0
 28 29  2  0
 29 30  1  0
 30 31  1  0
 31 32  2  0
 32 33  1  0
 33 34  2  0
 34 35  1  0
 35 36  2  0
  6 37  1  0
 37 38  2  0
 38  3  1  0
 24 13  1  0
 36 28  1  0
 36 31  1  0
M  END
>  <molecule_chembl_id>  (984) 
CHEMBL4070891

>  <canonical_smiles>  (984) 
COc1ccc(C(=O)NC(COc2ccc(C=CC(=O)NO)cc2OC)Cc2c[nH]c3ccccc23)cc1

>  <pchembl_value_mean>  (984) 
7.22

>  <document_chembl_id>  (984) 
CHEMBL4017444

$$$$

     RDKit          2D

 27 28  0  0  0  0  0  0  0  0999 V2000
    3.0000    0.0000    0.0000 C   0  0  0  0  0  0  0  0  0  0  0  0
    1.5000    0.0000    0.0000 C   0  0  0  0  0  0  0  0  0  0  0  0
    0.7500   -1.2990    0.0000 C   0  0  0  0  0  0  0  0  0  0  0  0
   -0.7500   -1.2990    0.0000 C   0  0  0  0  0  0  0  0  0  0  0  0
   -1.5000    0.0000    0.0000 C   0  0  0  0  0  0  0  0  0  0  0  0
   -3.0000    0.0000    0.0000 N   0  0  0  0  0  0  0  0  0  0  0  0
   -3.7500    1.2990    0.0000 C   0  0  0  0  0  0  0  0  0  0  0  0
   -3.0000    2.5981    0.0000 O   0  0  0  0  0  0  0  0  0  0  0  0
   -5.2500    1.2990    0.0000 C   0  0  0  0  0  0  0  0  0  0  0  0
   -6.0000    2.5981    0.0000 C   0  0  0  0  0  0  0  0  0  0  0  0
   -7.5000    2.5981    0.0000 C   0  0  0  0  0  0  0  0  0  0  0  0
   -8.2500    3.8971    0.0000 C   0  0  0  0  0  0  0  0  0  0  0  0
   -9.7500    3.8971    0.0000 C   0  0  0  0  0  0  0  0  0  0  0  0
  -10.5000    5.1962    0.0000 C   0  0  0  0  0  0  0  0  0  0  0  0
  -12.0000    5.1962    0.0000 S   0  0  0  0  0  0  0  0  0  0  0  0
   -6.0000    0.0000    0.0000 N   0  0  0  0  0  0  0  0  0  0  0  0
   -7.5000    0.0000    0.0000 C   0  0  0  0  0  0  0  0  0  0  0  0
   -8.2500    1.2990    0.0000 O   0  0  0  0  0  0  0  0  0  0  0  0
   -8.2500   -1.2990    0.0000 C   0  0  0  0  0  0  0  0  0  0  0  0
   -9.7500   -1.2990    0.0000 C   0  0  0  0  0  0  0  0  0  0  0  0
  -10.5000   -2.5981    0.0000 C   0  0  0  0  0  0  0  0  0  0  0  0
   -9.7500   -3.8971    0.0000 C   0  0  0  0  0  0  0  0  0  0  0  0
   -8.2500   -3.8971    0.0000 C   0  0  0  0  0  0  0  0  0  0  0  0
   -7.5000   -5.1962    0.0000 O   0  0  0  0  0  0  0  0  0  0  0  0
   -7.5000   -2.5981    0.0000 N   0  0  0  0  0  0  0  0  0  0  0  0
   -0.7500    1.2990    0.0000 C   0  0  0  0  0  0  0  0  0  0  0  0
    0.7500    1.2990    0.0000 C   0  0  0  0  0  0  0  0  0  0  0  0
  1  2  1  0
  2  3  2  0
  3  4  1  0
  4  5  2  0
  5  6  1  0
  6  7  1  0
  7  8  2  0
  7  9  1  0
  9 10  1  0
 10 11  1  0
 11 12  1  0
 12 13  1  0
 13 14  1  0
 14 15  1  0
  9 16  1  0
 16 17  1  0
 17 18  2  0
 17 19  1  0
 19 20  1  0
 20 21  1  0
 21 22  1  0
 22 23  1  0
 23 24  2  0
 23 25  1  0
  5 26  1  0
 26 27  2  0
 27  2  1  0
 25 19  1  0
M  END
>  <molecule_chembl_id>  (985) 
CHEMBL3356917

>  <canonical_smiles>  (985) 
Cc1ccc(NC(=O)C(CCCCCS)NC(=O)C2CCCC(=O)N2)cc1

>  <pchembl_value_mean>  (985) 
7.22

>  <document_chembl_id>  (985) 
CHEMBL3352570

$$$$

     RDKit          2D

 25 27  0  0  0  0  0  0  0  0999 V2000
    5.2500   -1.2990    0.0000 C   0  0  0  0  0  0  0  0  0  0  0  0
    3.7500   -1.2990    0.0000 C   0  0  0  0  0  0  0  0  0  0  0  0
    3.0000   -2.5981    0.0000 O   0  0  0  0  0  0  0  0  0  0  0  0
    3.0000    0.0000    0.0000 N   0  0  0  0  0  0  0  0  0  0  0  0
    1.5000    0.0000    0.0000 C   0  0  0  0  0  0  0  0  0  0  0  0
    0.7500   -1.2990    0.0000 C   0  0  0  0  0  0  0  0  0  0  0  0
   -0.7500   -1.2990    0.0000 C   0  0  0  0  0  0  0  0  0  0  0  0
   -1.5000    0.0000    0.0000 C   0  0  0  0  0  0  0  0  0  0  0  0
   -3.0000    0.0000    0.0000 C   0  0  0  0  0  0  0  0  0  0  0  0
   -3.7500   -1.2990    0.0000 O   0  0  0  0  0  0  0  0  0  0  0  0
   -3.7500    1.2990    0.0000 N   0  0  0  0  0  0  0  0  0  0  0  0
   -5.2500    1.2990    0.0000 C   0  0  0  0  0  0  0  0  0  0  0  0
   -6.0000    2.5981    0.0000 C   0  0  0  0  0  0  0  0  0  0  0  0
   -7.5000    2.5981    0.0000 C   0  0  0  0  0  0  0  0  0  0  0  0
   -8.2500    3.8971    0.0000 C   0  0  0  0  0  0  0  0  0  0  0  0
   -9.7418    4.0539    0.0000 C   0  0  0  0  0  0  0  0  0  0  0  0
  -10.0537    5.5211    0.0000 C   0  0  0  0  0  0  0  0  0  0  0  0
   -8.7546    6.2711    0.0000 C   0  0  0  0  0  0  0  0  0  0  0  0
   -7.6399    5.2674    0.0000 S   0  0  0  0  0  0  0  0  0  0  0  0
   -8.2500    1.2990    0.0000 C   0  0  0  0  0  0  0  0  0  0  0  0
   -7.5000    0.0000    0.0000 C   0  0  0  0  0  0  0  0  0  0  0  0
   -6.0000    0.0000    0.0000 C   0  0  0  0  0  0  0  0  0  0  0  0
   -5.2500   -1.2990    0.0000 N   0  0  0  0  0  0  0  0  0  0  0  0
   -0.7500    1.2990    0.0000 C   0  0  0  0  0  0  0  0  0  0  0  0
    0.7500    1.2990    0.0000 C   0  0  0  0  0  0  0  0  0  0  0  0
  1  2  1  0
  2  3  2  0
  2  4  1  0
  4  5  1  0
  5  6  2  0
  6  7  1  0
  7  8  2  0
  8  9  1  0
  9 10  2  0
  9 11  1  0
 11 12  1  0
 12 13  2  0
 13 14  1  0
 14 15  1  0
 15 16  2  0
 16 17  1  0
 17 18  2  0
 18 19  1  0
 14 20  2  0
 20 21  1  0
 21 22  2  0
 22 23  1  0
  8 24  1  0
 24 25  2  0
 25  5  1  0
 22 12  1  0
 19 15  1  0
M  END
>  <molecule_chembl_id>  (986) 
CHEMBL235842

>  <canonical_smiles>  (986) 
CC(=O)Nc1ccc(C(=O)Nc2cc(-c3cccs3)ccc2N)cc1

>  <pchembl_value_mean>  (986) 
7.226666

>  <document_chembl_id>  (986) 
CHEMBL1138236

$$$$

     RDKit          2D

 32 35  0  0  0  0  0  0  0  0999 V2000
  -12.7500   -6.4952    0.0000 O   0  0  0  0  0  0  0  0  0  0  0  0
  -12.0000   -7.7942    0.0000 C   0  0  0  0  0  0  0  0  0  0  0  0
  -10.5000   -7.7942    0.0000 C   0  0  0  0  0  0  0  0  0  0  0  0
   -9.7500   -6.4952    0.0000 C   0  0  0  0  0  0  0  0  0  0  0  0
   -8.2500   -6.4952    0.0000 C   0  0  0  0  0  0  0  0  0  0  0  0
   -7.5000   -5.1962    0.0000 C   0  0  0  0  0  0  0  0  0  0  0  0
   -6.0000   -5.1962    0.0000 C   0  0  0  0  0  0  0  0  0  0  0  0
   -5.2500   -3.8971    0.0000 C   0  0  0  0  0  0  0  0  0  0  0  0
   -3.7500   -3.8971    0.0000 C   0  0  0  0  0  0  0  0  0  0  0  0
   -3.0000   -2.5981    0.0000 N   0  0  0  0  0  0  0  0  0  0  0  0
   -1.5000   -2.5981    0.0000 C   0  0  0  0  0  0  0  0  0  0  0  0
   -0.7500   -3.8971    0.0000 N   0  0  0  0  0  0  0  0  0  0  0  0
    0.7500   -3.8971    0.0000 N   0  0  0  0  0  0  0  0  0  0  0  0
    1.5000   -5.1962    0.0000 C   0  0  0  0  0  0  0  0  0  0  0  0
    0.7500   -6.4952    0.0000 O   0  0  0  0  0  0  0  0  0  0  0  0
    3.0000   -5.1962    0.0000 C   0  0  0  0  0  0  0  0  0  0  0  0
    3.7500   -6.4952    0.0000 C   0  0  0  0  0  0  0  0  0  0  0  0
    5.2500   -6.4952    0.0000 C   0  0  0  0  0  0  0  0  0  0  0  0
    6.0000   -7.7942    0.0000 Cl  0  0  0  0  0  0  0  0  0  0  0  0
    6.0000   -5.1962    0.0000 C   0  0  0  0  0  0  0  0  0  0  0  0
    5.2500   -3.8971    0.0000 C   0  0  0  0  0  0  0  0  0  0  0  0
    3.7500   -3.8971    0.0000 C   0  0  0  0  0  0  0  0  0  0  0  0
    3.0000   -2.5981    0.0000 N   0  0  0  0  0  0  0  0  0  0  0  0
    1.5000   -2.5981    0.0000 C   0  0  0  0  0  0  0  0  0  0  0  0
    0.7500   -1.2990    0.0000 C   0  0  0  0  0  0  0  0  0  0  0  0
    1.5000    0.0000    0.0000 C   0  0  0  0  0  0  0  0  0  0  0  0
    0.7500    1.2990    0.0000 C   0  0  0  0  0  0  0  0  0  0  0  0
   -0.7500    1.2990    0.0000 C   0  0  0  0  0  0  0  0  0  0  0  0
   -1.5000    0.0000    0.0000 C   0  0  0  0  0  0  0  0  0  0  0  0
   -0.7500   -1.2990    0.0000 C   0  0  0  0  0  0  0  0  0  0  0  0
  -12.7500   -9.0933    0.0000 N   0  0  0  0  0  0  0  0  0  0  0  0
  -14.2500   -9.0933    0.0000 O   0  0  0  0  0  0  0  0  0  0  0  0
  1  2  2  0
  2  3  1  0
  3  4  1  0
  4  5  1  0
  5  6  1  0
  6  7  1  0
  7  8  1  0
  8  9  1  0
  9 10  1  0
 10 11  1  0
 11 12  2  0
 12 13  1  0
 13 14  1  0
 14 15  2  0
 14 16  1  0
 16 17  2  0
 17 18  1  0
 18 19  1  0
 18 20  2  0
 20 21  1  0
 21 22  2  0
 22 23  1  0
 23 24  2  0
 24 25  1  0
 25 26  2  0
 26 27  1  0
 27 28  2  0
 28 29  1  0
 29 30  2  0
  2 31  1  0
 31 32  1  0
 30 11  1  0
 24 13  1  0
 30 25  1  0
 22 16  1  0
M  END
>  <molecule_chembl_id>  (987) 
CHEMBL5093545

>  <canonical_smiles>  (987) 
O=C(CCCCCCCNc1nn2c(=O)c3cc(Cl)ccc3nc2c2ccccc12)NO

>  <pchembl_value_mean>  (987) 
7.23

>  <document_chembl_id>  (987) 
CHEMBL5042505

$$$$

     RDKit          2D

 37 40  0  0  0  0  0  0  0  0999 V2000
  -11.6442  -14.3101    0.0000 C   0  0  0  0  0  0  0  0  0  0  0  0
  -11.3324  -12.8429    0.0000 C   0  0  0  0  0  0  0  0  0  0  0  0
   -9.9058  -12.3794    0.0000 C   0  0  0  0  0  0  0  0  0  0  0  0
   -8.7911  -13.3831    0.0000 O   0  0  0  0  0  0  0  0  0  0  0  0
   -9.5939  -10.9121    0.0000 C   0  0  0  0  0  0  0  0  0  0  0  0
   -8.1673  -10.4486    0.0000 C   0  0  0  0  0  0  0  0  0  0  0  0
   -7.8555   -8.9814    0.0000 C   0  0  0  0  0  0  0  0  0  0  0  0
   -6.4289   -8.5179    0.0000 C   0  0  0  0  0  0  0  0  0  0  0  0
   -6.1170   -7.0506    0.0000 C   0  0  0  0  0  0  0  0  0  0  0  0
   -4.6904   -6.5871    0.0000 C   0  0  0  0  0  0  0  0  0  0  0  0
   -4.3786   -5.1199    0.0000 N   0  0  0  0  0  0  0  0  0  0  0  0
   -2.9520   -4.6564    0.0000 C   0  0  0  0  0  0  0  0  0  0  0  0
   -1.8373   -5.6601    0.0000 O   0  0  0  0  0  0  0  0  0  0  0  0
   -2.6401   -3.1891    0.0000 C   0  0  0  0  0  0  0  0  0  0  0  0
   -1.2135   -2.7256    0.0000 C   0  0  0  0  0  0  0  0  0  0  0  0
   -0.0000   -3.6073    0.0000 C   0  0  0  0  0  0  0  0  0  0  0  0
    0.0000   -5.1073    0.0000 C   0  0  0  0  0  0  0  0  0  0  0  0
    1.2135   -2.7256    0.0000 N   0  0  0  0  0  0  0  0  0  0  0  0
    0.7500   -1.2990    0.0000 C   0  0  0  0  0  0  0  0  0  0  0  0
    1.5000    0.0000    0.0000 C   0  0  0  0  0  0  0  0  0  0  0  0
    0.7500    1.2990    0.0000 C   0  0  0  0  0  0  0  0  0  0  0  0
   -0.7500    1.2990    0.0000 C   0  0  0  0  0  0  0  0  0  0  0  0
   -1.5000    2.5981    0.0000 O   0  0  0  0  0  0  0  0  0  0  0  0
   -0.7500    3.8971    0.0000 C   0  0  0  0  0  0  0  0  0  0  0  0
   -1.5000    0.0000    0.0000 C   0  0  0  0  0  0  0  0  0  0  0  0
   -0.7500   -1.2990    0.0000 C   0  0  0  0  0  0  0  0  0  0  0  0
   -3.5757   -7.5908    0.0000 C   0  0  0  0  0  0  0  0  0  0  0  0
   -2.1085   -7.2789    0.0000 N   0  0  0  0  0  0  0  0  0  0  0  0
   -1.3585   -8.5780    0.0000 C   0  0  0  0  0  0  0  0  0  0  0  0
   -2.3622   -9.6927    0.0000 C   0  0  0  0  0  0  0  0  0  0  0  0
   -2.0503  -11.1599    0.0000 C   0  0  0  0  0  0  0  0  0  0  0  0
   -3.1650  -12.1636    0.0000 C   0  0  0  0  0  0  0  0  0  0  0  0
   -2.8532  -13.6308    0.0000 C   0  0  0  0  0  0  0  0  0  0  0  0
   -1.4266  -14.0944    0.0000 C   0  0  0  0  0  0  0  0  0  0  0  0
   -0.3119  -13.0907    0.0000 C   0  0  0  0  0  0  0  0  0  0  0  0
   -0.6237  -11.6234    0.0000 C   0  0  0  0  0  0  0  0  0  0  0  0
   -3.7325   -9.0826    0.0000 N   0  0  0  0  0  0  0  0  0  0  0  0
  1  2  1  0
  2  3  1  0
  3  4  2  0
  3  5  1  0
  5  6  1  0
  6  7  1  0
  7  8  1  0
  8  9  1  0
  9 10  1  0
 10 11  1  0
 11 12  1  0
 12 13  2  0
 12 14  1  0
 14 15  1  0
 15 16  2  0
 16 17  1  0
 16 18  1  0
 18 19  1  0
 19 20  2  0
 20 21  1  0
 21 22  2  0
 22 23  1  0
 23 24  1  0
 22 25  1  0
 25 26  2  0
 10 27  1  0
 27 28  2  0
 28 29  1  0
 29 30  2  0
 30 31  1  0
 31 32  2  0
 32 33  1  0
 33 34  2  0
 34 35  1  0
 35 36  2  0
 30 37  1  0
 26 15  1  0
 37 27  1  0
 26 19  1  0
 36 31  1  0
M  END
>  <molecule_chembl_id>  (988) 
CHEMBL261735

>  <canonical_smiles>  (988) 
CCC(=O)CCCCCC(NC(=O)Cc1c(C)[nH]c2ccc(OC)cc12)c1ncc(-c2ccccc2)[nH]1

>  <pchembl_value_mean>  (988) 
7.23

>  <document_chembl_id>  (988) 
CHEMBL1144784

$$$$

     RDKit          2D

 27 29  0  0  0  0  0  0  0  0999 V2000
  -15.0000   -2.5981    0.0000 C   0  0  0  0  0  0  0  0  0  0  0  0
  -14.2500   -3.8971    0.0000 C   0  0  0  0  0  0  0  0  0  0  0  0
  -12.7500   -3.8971    0.0000 C   0  0  0  0  0  0  0  0  0  0  0  0
  -12.0000   -5.1962    0.0000 N   0  0  0  0  0  0  0  0  0  0  0  0
  -10.5000   -5.1962    0.0000 N   0  0  0  0  0  0  0  0  0  0  0  0
   -9.7500   -6.4952    0.0000 C   0  0  0  0  0  0  0  0  0  0  0  0
  -10.5000   -7.7942    0.0000 O   0  0  0  0  0  0  0  0  0  0  0  0
   -8.2500   -6.4952    0.0000 C   0  0  0  0  0  0  0  0  0  0  0  0
   -7.5000   -5.1962    0.0000 C   0  0  0  0  0  0  0  0  0  0  0  0
   -6.0000   -5.1962    0.0000 C   0  0  0  0  0  0  0  0  0  0  0  0
   -5.2500   -6.4952    0.0000 C   0  0  0  0  0  0  0  0  0  0  0  0
   -3.7500   -6.4952    0.0000 C   0  0  0  0  0  0  0  0  0  0  0  0
   -3.0000   -5.1962    0.0000 N   0  0  0  0  0  0  0  0  0  0  0  0
   -1.5000   -5.1962    0.0000 C   0  0  0  0  0  0  0  0  0  0  0  0
   -0.7500   -6.4952    0.0000 O   0  0  0  0  0  0  0  0  0  0  0  0
   -0.7500   -3.8971    0.0000 C   0  0  0  0  0  0  0  0  0  0  0  0
    0.7500   -3.8971    0.0000 C   0  0  0  0  0  0  0  0  0  0  0  0
    1.5000   -2.5981    0.0000 C   0  0  0  0  0  0  0  0  0  0  0  0
    0.7500   -1.2990    0.0000 C   0  0  0  0  0  0  0  0  0  0  0  0
    1.5000    0.0000    0.0000 C   0  0  0  0  0  0  0  0  0  0  0  0
    0.7500    1.2990    0.0000 C   0  0  0  0  0  0  0  0  0  0  0  0
   -0.7500    1.2990    0.0000 C   0  0  0  0  0  0  0  0  0  0  0  0
   -1.5000    0.0000    0.0000 C   0  0  0  0  0  0  0  0  0  0  0  0
   -0.7500   -1.2990    0.0000 C   0  0  0  0  0  0  0  0  0  0  0  0
   -1.5000   -2.5981    0.0000 N   0  0  0  0  0  0  0  0  0  0  0  0
   -6.0000   -7.7942    0.0000 C   0  0  0  0  0  0  0  0  0  0  0  0
   -7.5000   -7.7942    0.0000 C   0  0  0  0  0  0  0  0  0  0  0  0
  1  2  1  0
  2  3  1  0
  3  4  1  0
  4  5  1  0
  5  6  1  0
  6  7  2  0
  6  8  1  0
  8  9  2  0
  9 10  1  0
 10 11  2  0
 11 12  1  0
 12 13  1  0
 13 14  1  0
 14 15  2  0
 14 16  1  0
 16 17  2  0
 17 18  1  0
 18 19  2  0
 19 20  1  0
 20 21  2  0
 21 22  1  0
 22 23  2  0
 23 24  1  0
 24 25  2  0
 11 26  1  0
 26 27  2  0
 27  8  1  0
 25 16  1  0
 24 19  1  0
M  END
>  <molecule_chembl_id>  (989) 
CHEMBL5073909

>  <canonical_smiles>  (989) 
CCCNNC(=O)c1ccc(CNC(=O)c2ccc3ccccc3n2)cc1

>  <pchembl_value_mean>  (989) 
7.24

>  <document_chembl_id>  (989) 
CHEMBL5042504

$$$$

     RDKit          2D

 33 36  0  0  0  0  0  0  0  0999 V2000
   -0.5864  -10.4561    0.0000 C   0  0  0  0  0  0  0  0  0  0  0  0
    0.6272   -9.5744    0.0000 C   0  0  0  0  0  0  0  0  0  0  0  0
    0.4704   -8.0826    0.0000 C   0  0  0  0  0  0  0  0  0  0  0  0
    1.6839   -7.2010    0.0000 C   0  0  0  0  0  0  0  0  0  0  0  0
    1.5271   -5.7092    0.0000 C   0  0  0  0  0  0  0  0  0  0  0  0
    0.1568   -5.0991    0.0000 N   0  0  0  0  0  0  0  0  0  0  0  0
   -0.0000   -3.6073    0.0000 C   0  0  0  0  0  0  0  0  0  0  0  0
   -1.2135   -2.7256    0.0000 S   0  0  0  0  0  0  0  0  0  0  0  0
   -0.7500   -1.2990    0.0000 C   0  0  0  0  0  0  0  0  0  0  0  0
    0.7500   -1.2990    0.0000 C   0  0  0  0  0  0  0  0  0  0  0  0
    1.2135   -2.7256    0.0000 C   0  0  0  0  0  0  0  0  0  0  0  0
    2.5838   -3.3357    0.0000 C   0  0  0  0  0  0  0  0  0  0  0  0
    3.7974   -2.4540    0.0000 O   0  0  0  0  0  0  0  0  0  0  0  0
    2.7406   -4.8275    0.0000 N   0  0  0  0  0  0  0  0  0  0  0  0
    1.5000    0.0000    0.0000 C   0  0  0  0  0  0  0  0  0  0  0  0
    0.7500    1.2990    0.0000 C   0  0  0  0  0  0  0  0  0  0  0  0
   -0.7500    1.2990    0.0000 N   0  0  0  0  0  0  0  0  0  0  0  0
   -1.5000    2.5981    0.0000 C   0  0  0  0  0  0  0  0  0  0  0  0
   -1.5000    0.0000    0.0000 C   0  0  0  0  0  0  0  0  0  0  0  0
    3.0542   -7.8111    0.0000 C   0  0  0  0  0  0  0  0  0  0  0  0
    3.2110   -9.3029    0.0000 C   0  0  0  0  0  0  0  0  0  0  0  0
    4.5813   -9.9130    0.0000 C   0  0  0  0  0  0  0  0  0  0  0  0
    1.9975  -10.1845    0.0000 C   0  0  0  0  0  0  0  0  0  0  0  0
    2.1543  -11.6763    0.0000 O   0  0  0  0  0  0  0  0  0  0  0  0
    0.9408  -12.5580    0.0000 C   0  0  0  0  0  0  0  0  0  0  0  0
    1.0975  -14.0498    0.0000 C   0  0  0  0  0  0  0  0  0  0  0  0
   -0.1160  -14.9315    0.0000 C   0  0  0  0  0  0  0  0  0  0  0  0
    0.0408  -16.4232    0.0000 C   0  0  0  0  0  0  0  0  0  0  0  0
   -1.1727  -17.3049    0.0000 C   0  0  0  0  0  0  0  0  0  0  0  0
   -1.0159  -18.7967    0.0000 C   0  0  0  0  0  0  0  0  0  0  0  0
    0.3544  -19.4068    0.0000 O   0  0  0  0  0  0  0  0  0  0  0  0
   -2.2294  -19.6784    0.0000 N   0  0  0  0  0  0  0  0  0  0  0  0
   -2.0726  -21.1702    0.0000 O   0  0  0  0  0  0  0  0  0  0  0  0
  1  2  1  0
  2  3  2  0
  3  4  1  0
  4  5  1  0
  5  6  2  0
  6  7  1  0
  7  8  1  0
  8  9  1  0
  9 10  2  0
 10 11  1  0
 11 12  1  0
 12 13  2  0
 12 14  1  0
 10 15  1  0
 15 16  1  0
 16 17  1  0
 17 18  1  0
 17 19  1  0
  4 20  2  0
 20 21  1  0
 21 22  1  0
 21 23  2  0
 23 24  1  0
 24 25  1  0
 25 26  1  0
 26 27  1  0
 27 28  1  0
 28 29  1  0
 29 30  1  0
 30 31  2  0
 30 32  1  0
 32 33  1  0
 23  2  1  0
 14  5  1  0
 11  7  2  0
 19  9  1  0
M  END
>  <molecule_chembl_id>  (990) 
CHEMBL4514808

>  <canonical_smiles>  (990) 
Cc1cc(-c2nc3sc4c(c3c(=O)[nH]2)CCN(C)C4)cc(C)c1OCCCCCC(=O)NO

>  <pchembl_value_mean>  (990) 
7.24

>  <document_chembl_id>  (990) 
CHEMBL4342471

$$$$

     RDKit          2D

 22 23  0  0  0  0  0  0  0  0999 V2000
   -3.8971  -14.8573    0.0000 O   0  0  0  0  0  0  0  0  0  0  0  0
   -5.1962  -14.1073    0.0000 C   0  0  0  0  0  0  0  0  0  0  0  0
   -5.1962  -12.6073    0.0000 C   0  0  0  0  0  0  0  0  0  0  0  0
   -3.8971  -11.8573    0.0000 C   0  0  0  0  0  0  0  0  0  0  0  0
   -3.8971  -10.3573    0.0000 C   0  0  0  0  0  0  0  0  0  0  0  0
   -2.5981   -9.6073    0.0000 C   0  0  0  0  0  0  0  0  0  0  0  0
   -2.5981   -8.1073    0.0000 C   0  0  0  0  0  0  0  0  0  0  0  0
   -1.2990   -7.3573    0.0000 O   0  0  0  0  0  0  0  0  0  0  0  0
   -1.2990   -5.8573    0.0000 N   0  0  0  0  0  0  0  0  0  0  0  0
   -0.0000   -5.1073    0.0000 C   0  0  0  0  0  0  0  0  0  0  0  0
    1.2990   -5.8573    0.0000 O   0  0  0  0  0  0  0  0  0  0  0  0
   -0.0000   -3.6073    0.0000 C   0  0  0  0  0  0  0  0  0  0  0  0
    1.2135   -2.7256    0.0000 C   0  0  0  0  0  0  0  0  0  0  0  0
    0.7500   -1.2990    0.0000 C   0  0  0  0  0  0  0  0  0  0  0  0
    1.5000    0.0000    0.0000 C   0  0  0  0  0  0  0  0  0  0  0  0
    0.7500    1.2990    0.0000 C   0  0  0  0  0  0  0  0  0  0  0  0
   -0.7500    1.2990    0.0000 C   0  0  0  0  0  0  0  0  0  0  0  0
   -1.5000    0.0000    0.0000 C   0  0  0  0  0  0  0  0  0  0  0  0
   -0.7500   -1.2990    0.0000 C   0  0  0  0  0  0  0  0  0  0  0  0
   -1.2135   -2.7256    0.0000 N   0  0  0  0  0  0  0  0  0  0  0  0
   -6.4952  -14.8573    0.0000 N   0  0  0  0  0  0  0  0  0  0  0  0
   -6.4952  -16.3573    0.0000 O   0  0  0  0  0  0  0  0  0  0  0  0
  1  2  2  0
  2  3  1  0
  3  4  1  0
  4  5  1  0
  5  6  1  0
  6  7  1  0
  7  8  1  0
  8  9  1  0
  9 10  1  0
 10 11  2  0
 10 12  1  0
 12 13  2  0
 13 14  1  0
 14 15  2  0
 15 16  1  0
 16 17  2  0
 17 18  1  0
 18 19  2  0
 19 20  1  0
  2 21  1  0
 21 22  1  0
 20 12  1  0
 19 14  1  0
M  END
>  <molecule_chembl_id>  (991) 
CHEMBL4850081

>  <canonical_smiles>  (991) 
O=C(CCCCCONC(=O)c1cc2ccccc2[nH]1)NO

>  <pchembl_value_mean>  (991) 
7.24

>  <document_chembl_id>  (991) 
CHEMBL4823243

$$$$

     RDKit          2D

 21 23  0  0  0  0  0  0  0  0999 V2000
    3.0000    0.0000    0.0000 C   0  0  0  0  0  0  0  0  0  0  0  0
    1.5000    0.0000    0.0000 C   0  0  0  0  0  0  0  0  0  0  0  0
    0.7500   -1.2990    0.0000 C   0  0  0  0  0  0  0  0  0  0  0  0
   -0.7500   -1.2990    0.0000 C   0  0  0  0  0  0  0  0  0  0  0  0
   -1.5000    0.0000    0.0000 C   0  0  0  0  0  0  0  0  0  0  0  0
   -0.7500    1.2990    0.0000 C   0  0  0  0  0  0  0  0  0  0  0  0
    0.7500    1.2990    0.0000 C   0  0  0  0  0  0  0  0  0  0  0  0
    1.5000    2.5981    0.0000 C   0  0  0  0  0  0  0  0  0  0  0  0
    2.9095    2.0850    0.0000 N   0  0  0  0  0  0  0  0  0  0  0  0
    4.0586    3.0492    0.0000 C   0  0  0  0  0  0  0  0  0  0  0  0
    5.4681    2.5362    0.0000 N   0  0  0  0  0  0  0  0  0  0  0  0
    6.6172    3.5004    0.0000 C   0  0  0  0  0  0  0  0  0  0  0  0
    6.3567    4.9776    0.0000 C   0  0  0  0  0  0  0  0  0  0  0  0
    7.5058    5.9418    0.0000 C   0  0  0  0  0  0  0  0  0  0  0  0
    7.2453    7.4190    0.0000 O   0  0  0  0  0  0  0  0  0  0  0  0
    8.9153    5.4287    0.0000 N   0  0  0  0  0  0  0  0  0  0  0  0
   10.0644    6.3929    0.0000 O   0  0  0  0  0  0  0  0  0  0  0  0
    4.9472    5.4906    0.0000 C   0  0  0  0  0  0  0  0  0  0  0  0
    3.7981    4.5264    0.0000 N   0  0  0  0  0  0  0  0  0  0  0  0
    1.7605    4.0753    0.0000 C   0  0  0  0  0  0  0  0  0  0  0  0
    0.3509    3.5623    0.0000 C   0  0  0  0  0  0  0  0  0  0  0  0
  1  2  1  0
  2  3  2  0
  3  4  1  0
  4  5  2  0
  5  6  1  0
  6  7  2  0
  7  8  1  0
  8  9  1  0
  9 10  1  0
 10 11  2  0
 11 12  1  0
 12 13  2  0
 13 14  1  0
 14 15  2  0
 14 16  1  0
 16 17  1  0
 13 18  1  0
 18 19  2  0
  8 20  1  0
 20 21  1  0
  7  2  1  0
 21  8  1  0
 19 10  1  0
M  END
>  <molecule_chembl_id>  (992) 
CHEMBL3655996

>  <canonical_smiles>  (992) 
Cc1ccccc1C1(Nc2ncc(C(=O)NO)cn2)CC1

>  <pchembl_value_mean>  (992) 
7.24

>  <document_chembl_id>  (992) 
CHEMBL3639071

$$$$

     RDKit          2D

 27 29  0  0  0  0  0  0  0  0999 V2000
    8.4628    7.9328    0.0000 O   0  0  0  0  0  0  0  0  0  0  0  0
    7.3481    8.9365    0.0000 C   0  0  0  0  0  0  0  0  0  0  0  0
    5.9215    8.4730    0.0000 C   0  0  0  0  0  0  0  0  0  0  0  0
    5.6097    7.0058    0.0000 C   0  0  0  0  0  0  0  0  0  0  0  0
    4.1831    6.5422    0.0000 C   0  0  0  0  0  0  0  0  0  0  0  0
    3.8712    5.0750    0.0000 C   0  0  0  0  0  0  0  0  0  0  0  0
    2.4446    4.6115    0.0000 C   0  0  0  0  0  0  0  0  0  0  0  0
    2.1328    3.1443    0.0000 N   0  0  0  0  0  0  0  0  0  0  0  0
    0.7062    2.6807    0.0000 C   0  0  0  0  0  0  0  0  0  0  0  0
   -0.4086    3.6844    0.0000 N   0  0  0  0  0  0  0  0  0  0  0  0
   -1.8351    3.2209    0.0000 C   0  0  0  0  0  0  0  0  0  0  0  0
   -2.9499    4.2246    0.0000 Cl  0  0  0  0  0  0  0  0  0  0  0  0
   -2.1470    1.7537    0.0000 N   0  0  0  0  0  0  0  0  0  0  0  0
   -1.0323    0.7500    0.0000 C   0  0  0  0  0  0  0  0  0  0  0  0
    0.3943    1.2135    0.0000 C   0  0  0  0  0  0  0  0  0  0  0  0
    1.2760    0.0000    0.0000 N   0  0  0  0  0  0  0  0  0  0  0  0
    0.3943   -1.2135    0.0000 C   0  0  0  0  0  0  0  0  0  0  0  0
   -1.0323   -0.7500    0.0000 N   0  0  0  0  0  0  0  0  0  0  0  0
   -2.2458   -1.6317    0.0000 C   0  0  0  0  0  0  0  0  0  0  0  0
   -2.0890   -3.1235    0.0000 C   0  0  0  0  0  0  0  0  0  0  0  0
   -3.3025   -4.0051    0.0000 C   0  0  0  0  0  0  0  0  0  0  0  0
   -3.1458   -5.4969    0.0000 C   0  0  0  0  0  0  0  0  0  0  0  0
   -1.7754   -6.1070    0.0000 C   0  0  0  0  0  0  0  0  0  0  0  0
   -0.5619   -5.2253    0.0000 C   0  0  0  0  0  0  0  0  0  0  0  0
   -0.7187   -3.7336    0.0000 C   0  0  0  0  0  0  0  0  0  0  0  0
    7.6600   10.4037    0.0000 N   0  0  0  0  0  0  0  0  0  0  0  0
    9.0866   10.8673    0.0000 O   0  0  0  0  0  0  0  0  0  0  0  0
  1  2  2  0
  2  3  1  0
  3  4  1  0
  4  5  1  0
  5  6  1  0
  6  7  1  0
  7  8  1  0
  8  9  1  0
  9 10  2  0
 10 11  1  0
 11 12  1  0
 11 13  2  0
 13 14  1  0
 14 15  2  0
 15 16  1  0
 16 17  2  0
 17 18  1  0
 18 19  1  0
 19 20  1  0
 20 21  2  0
 21 22  1  0
 22 23  2  0
 23 24  1  0
 24 25  2  0
  2 26  1  0
 26 27  1  0
 15  9  1  0
 25 20  1  0
 18 14  1  0
M  END
>  <molecule_chembl_id>  (993) 
CHEMBL3763444

>  <canonical_smiles>  (993) 
O=C(CCCCCNc1nc(Cl)nc2c1ncn2Cc1ccccc1)NO

>  <pchembl_value_mean>  (993) 
7.25

>  <document_chembl_id>  (993) 
CHEMBL3763038

$$$$

     RDKit          2D

 25 26  0  0  0  0  0  0  0  0999 V2000
    3.0000    0.0000    0.0000 N   0  0  0  0  0  0  0  0  0  0  0  0
    1.5000    0.0000    0.0000 C   0  0  0  0  0  0  0  0  0  0  0  0
    0.7500   -1.2990    0.0000 C   0  0  0  0  0  0  0  0  0  0  0  0
   -0.7500   -1.2990    0.0000 C   0  0  0  0  0  0  0  0  0  0  0  0
   -1.5000    0.0000    0.0000 C   0  0  0  0  0  0  0  0  0  0  0  0
   -0.7500    1.2990    0.0000 C   0  0  0  0  0  0  0  0  0  0  0  0
   -1.5000    2.5981    0.0000 C   0  0  0  0  0  0  0  0  0  0  0  0
   -2.9918    2.7549    0.0000 C   0  0  0  0  0  0  0  0  0  0  0  0
   -3.3037    4.2221    0.0000 C   0  0  0  0  0  0  0  0  0  0  0  0
   -4.6740    4.8322    0.0000 C   0  0  0  0  0  0  0  0  0  0  0  0
   -5.8875    3.9505    0.0000 O   0  0  0  0  0  0  0  0  0  0  0  0
   -4.8308    6.3240    0.0000 N   0  0  0  0  0  0  0  0  0  0  0  0
   -6.2011    6.9341    0.0000 C   0  0  0  0  0  0  0  0  0  0  0  0
   -6.3579    8.4259    0.0000 C   0  0  0  0  0  0  0  0  0  0  0  0
   -7.7282    9.0360    0.0000 C   0  0  0  0  0  0  0  0  0  0  0  0
   -7.8850   10.5278    0.0000 C   0  0  0  0  0  0  0  0  0  0  0  0
   -9.2553   11.1379    0.0000 C   0  0  0  0  0  0  0  0  0  0  0  0
   -9.4121   12.6296    0.0000 C   0  0  0  0  0  0  0  0  0  0  0  0
  -10.7824   13.2397    0.0000 C   0  0  0  0  0  0  0  0  0  0  0  0
  -11.9959   12.3581    0.0000 O   0  0  0  0  0  0  0  0  0  0  0  0
  -10.9392   14.7315    0.0000 N   0  0  0  0  0  0  0  0  0  0  0  0
  -12.3095   15.3416    0.0000 O   0  0  0  0  0  0  0  0  0  0  0  0
   -2.0046    4.9721    0.0000 N   0  0  0  0  0  0  0  0  0  0  0  0
   -0.8899    3.9684    0.0000 O   0  0  0  0  0  0  0  0  0  0  0  0
    0.7500    1.2990    0.0000 C   0  0  0  0  0  0  0  0  0  0  0  0
  1  2  1  0
  2  3  2  0
  3  4  1  0
  4  5  2  0
  5  6  1  0
  6  7  1  0
  7  8  2  0
  8  9  1  0
  9 10  1  0
 10 11  2  0
 10 12  1  0
 12 13  1  0
 13 14  1  0
 14 15  1  0
 15 16  1  0
 16 17  1  0
 17 18  1  0
 18 19  1  0
 19 20  2  0
 19 21  1  0
 21 22  1  0
  9 23  2  0
 23 24  1  0
  6 25  2  0
 25  2  1  0
 24  7  1  0
M  END
>  <molecule_chembl_id>  (994) 
CHEMBL468595

>  <canonical_smiles>  (994) 
Nc1cccc(-c2cc(C(=O)NCCCCCCC(=O)NO)no2)c1

>  <pchembl_value_mean>  (994) 
7.25

>  <document_chembl_id>  (994) 
CHEMBL1155917

$$$$

     RDKit          2D

 22 23  0  0  0  0  0  0  0  0999 V2000
    3.7500    1.2990    0.0000 O   0  0  0  0  0  0  0  0  0  0  0  0
    3.0000    0.0000    0.0000 C   0  0  0  0  0  0  0  0  0  0  0  0
    3.7500   -1.2990    0.0000 N   0  0  0  0  0  0  0  0  0  0  0  0
    5.2500   -1.2990    0.0000 O   0  0  0  0  0  0  0  0  0  0  0  0
    1.5000    0.0000    0.0000 C   0  0  0  0  0  0  0  0  0  0  0  0
    0.7500   -1.2990    0.0000 C   0  0  0  0  0  0  0  0  0  0  0  0
   -0.7500   -1.2990    0.0000 N   0  0  0  0  0  0  0  0  0  0  0  0
   -1.5000    0.0000    0.0000 C   0  0  0  0  0  0  0  0  0  0  0  0
   -3.0000    0.0000    0.0000 N   0  0  0  0  0  0  0  0  0  0  0  0
   -3.7500    1.2990    0.0000 C   0  0  0  0  0  0  0  0  0  0  0  0
   -5.2500    1.2990    0.0000 C   0  0  0  0  0  0  0  0  0  0  0  0
   -6.0000    2.5981    0.0000 C   0  0  0  0  0  0  0  0  0  0  0  0
   -7.5000    2.5981    0.0000 C   0  0  0  0  0  0  0  0  0  0  0  0
   -8.2500    1.2990    0.0000 C   0  0  0  0  0  0  0  0  0  0  0  0
   -7.5000    0.0000    0.0000 C   0  0  0  0  0  0  0  0  0  0  0  0
   -8.2500   -1.2990    0.0000 C   0  0  0  0  0  0  0  0  0  0  0  0
   -9.0000   -2.5981    0.0000 F   0  0  0  0  0  0  0  0  0  0  0  0
   -9.5490   -0.5490    0.0000 F   0  0  0  0  0  0  0  0  0  0  0  0
   -6.9510   -2.0490    0.0000 F   0  0  0  0  0  0  0  0  0  0  0  0
   -6.0000    0.0000    0.0000 C   0  0  0  0  0  0  0  0  0  0  0  0
   -0.7500    1.2990    0.0000 N   0  0  0  0  0  0  0  0  0  0  0  0
    0.7500    1.2990    0.0000 C   0  0  0  0  0  0  0  0  0  0  0  0
  1  2  2  0
  2  3  1  0
  3  4  1  0
  2  5  1  0
  5  6  2  0
  6  7  1  0
  7  8  2  0
  8  9  1  0
  9 10  1  0
 10 11  1  0
 11 12  2  0
 12 13  1  0
 13 14  2  0
 14 15  1  0
 15 16  1  0
 16 17  1  0
 16 18  1  0
 16 19  1  0
 15 20  2  0
  8 21  1  0
 21 22  2  0
 22  5  1  0
 20 11  1  0
M  END
>  <molecule_chembl_id>  (995) 
CHEMBL3655923

>  <canonical_smiles>  (995) 
O=C(NO)c1cnc(NCc2cccc(C(F)(F)F)c2)nc1

>  <pchembl_value_mean>  (995) 
7.25

>  <document_chembl_id>  (995) 
CHEMBL3639071

$$$$

     RDKit          2D

 36 39  0  0  0  0  0  0  0  0999 V2000
   14.7990   -8.5442    0.0000 C   0  0  0  0  0  0  0  0  0  0  0  0
   13.2990   -8.5442    0.0000 C   0  0  0  0  0  0  0  0  0  0  0  0
   12.5490   -7.2452    0.0000 C   0  0  0  0  0  0  0  0  0  0  0  0
   13.2990   -5.9462    0.0000 O   0  0  0  0  0  0  0  0  0  0  0  0
   11.0490   -7.2452    0.0000 C   0  0  0  0  0  0  0  0  0  0  0  0
   10.2990   -5.9462    0.0000 C   0  0  0  0  0  0  0  0  0  0  0  0
    8.7990   -5.9462    0.0000 C   0  0  0  0  0  0  0  0  0  0  0  0
    8.0490   -4.6471    0.0000 C   0  0  0  0  0  0  0  0  0  0  0  0
    6.5490   -4.6471    0.0000 C   0  0  0  0  0  0  0  0  0  0  0  0
    5.7990   -3.3481    0.0000 C   0  0  0  0  0  0  0  0  0  0  0  0
    4.2990   -3.3481    0.0000 N   0  0  0  0  0  0  0  0  0  0  0  0
    3.5490   -2.0490    0.0000 C   0  0  0  0  0  0  0  0  0  0  0  0
    4.2990   -0.7500    0.0000 O   0  0  0  0  0  0  0  0  0  0  0  0
    2.0490   -2.0490    0.0000 C   0  0  0  0  0  0  0  0  0  0  0  0
    0.7500   -2.7990    0.0000 C   0  0  0  0  0  0  0  0  0  0  0  0
    0.7500   -1.2990    0.0000 C   0  0  0  0  0  0  0  0  0  0  0  0
    1.5000    0.0000    0.0000 C   0  0  0  0  0  0  0  0  0  0  0  0
    0.7500    1.2990    0.0000 C   0  0  0  0  0  0  0  0  0  0  0  0
   -0.7500    1.2990    0.0000 N   0  0  0  0  0  0  0  0  0  0  0  0
   -1.5000    2.5981    0.0000 C   0  0  0  0  0  0  0  0  0  0  0  0
   -0.7500    3.8971    0.0000 C   0  0  0  0  0  0  0  0  0  0  0  0
   -1.5000    0.0000    0.0000 C   0  0  0  0  0  0  0  0  0  0  0  0
   -0.7500   -1.2990    0.0000 C   0  0  0  0  0  0  0  0  0  0  0  0
    6.5490   -2.0490    0.0000 C   0  0  0  0  0  0  0  0  0  0  0  0
    5.9389   -0.6787    0.0000 N   0  0  0  0  0  0  0  0  0  0  0  0
    7.0537    0.3250    0.0000 C   0  0  0  0  0  0  0  0  0  0  0  0
    8.3527   -0.4250    0.0000 C   0  0  0  0  0  0  0  0  0  0  0  0
    9.7230    0.1851    0.0000 C   0  0  0  0  0  0  0  0  0  0  0  0
   10.9365   -0.6966    0.0000 C   0  0  0  0  0  0  0  0  0  0  0  0
   12.3069   -0.0865    0.0000 C   0  0  0  0  0  0  0  0  0  0  0  0
   12.4636    1.4053    0.0000 C   0  0  0  0  0  0  0  0  0  0  0  0
   11.2501    2.2870    0.0000 N   0  0  0  0  0  0  0  0  0  0  0  0
    9.8798    1.6769    0.0000 C   0  0  0  0  0  0  0  0  0  0  0  0
    8.6663    2.5585    0.0000 O   0  0  0  0  0  0  0  0  0  0  0  0
    8.8231    4.0503    0.0000 C   0  0  0  0  0  0  0  0  0  0  0  0
    8.0408   -1.8922    0.0000 N   0  0  0  0  0  0  0  0  0  0  0  0
  1  2  1  0
  2  3  1  0
  3  4  2  0
  3  5  1  0
  5  6  1  0
  6  7  1  0
  7  8  1  0
  8  9  1  0
  9 10  1  0
 10 11  1  0
 11 12  1  0
 12 13  2  0
 12 14  1  0
 14 15  1  0
 15 16  1  0
 16 17  1  0
 17 18  1  0
 18 19  1  0
 19 20  1  0
 20 21  1  0
 19 22  1  0
 22 23  1  0
 10 24  1  0
 24 25  2  0
 25 26  1  0
 26 27  2  0
 27 28  1  0
 28 29  2  0
 29 30  1  0
 30 31  2  0
 31 32  1  0
 32 33  2  0
 33 34  1  0
 34 35  1  0
 27 36  1  0
 16 14  1  0
 36 24  1  0
 23 16  1  0
 33 28  1  0
M  END
>  <molecule_chembl_id>  (996) 
CHEMBL4753639

>  <canonical_smiles>  (996) 
CCC(=O)CCCCCC(NC(=O)C1CC12CCN(CC)CC2)c1ncc(-c2cccnc2OC)[nH]1

>  <pchembl_value_mean>  (996) 
7.25

>  <document_chembl_id>  (996) 
CHEMBL4680369

$$$$

     RDKit          2D

 30 33  0  0  0  0  0  0  0  0999 V2000
    3.0000    0.0000    0.0000 N   0  0  0  0  0  0  0  0  0  0  0  0
    1.5000    0.0000    0.0000 C   0  0  0  0  0  0  0  0  0  0  0  0
    0.7500   -1.2990    0.0000 C   0  0  0  0  0  0  0  0  0  0  0  0
   -0.7500   -1.2990    0.0000 C   0  0  0  0  0  0  0  0  0  0  0  0
   -1.5000    0.0000    0.0000 C   0  0  0  0  0  0  0  0  0  0  0  0
   -0.7500    1.2990    0.0000 C   0  0  0  0  0  0  0  0  0  0  0  0
    0.7500    1.2990    0.0000 C   0  0  0  0  0  0  0  0  0  0  0  0
    1.5000    2.5981    0.0000 N   0  0  0  0  0  0  0  0  0  0  0  0
    0.7500    3.8971    0.0000 C   0  0  0  0  0  0  0  0  0  0  0  0
   -0.7500    3.8971    0.0000 O   0  0  0  0  0  0  0  0  0  0  0  0
    1.5000    5.1962    0.0000 C   0  0  0  0  0  0  0  0  0  0  0  0
    3.0000    5.1962    0.0000 C   0  0  0  0  0  0  0  0  0  0  0  0
    3.7500    6.4952    0.0000 C   0  0  0  0  0  0  0  0  0  0  0  0
    3.0000    7.7942    0.0000 C   0  0  0  0  0  0  0  0  0  0  0  0
    3.7500    9.0933    0.0000 C   0  0  0  0  0  0  0  0  0  0  0  0
    5.2500    9.0933    0.0000 N   0  0  0  0  0  0  0  0  0  0  0  0
    6.0000   10.3923    0.0000 C   0  0  0  0  0  0  0  0  0  0  0  0
    5.3899   11.7626    0.0000 N   0  0  0  0  0  0  0  0  0  0  0  0
    6.5046   12.7663    0.0000 C   0  0  0  0  0  0  0  0  0  0  0  0
    6.3478   14.2581    0.0000 O   0  0  0  0  0  0  0  0  0  0  0  0
    7.8037   12.0163    0.0000 C   0  0  0  0  0  0  0  0  0  0  0  0
    9.1740   12.6264    0.0000 C   0  0  0  0  0  0  0  0  0  0  0  0
   10.3875   11.7447    0.0000 C   0  0  0  0  0  0  0  0  0  0  0  0
   11.7578   12.3549    0.0000 C   0  0  0  0  0  0  0  0  0  0  0  0
   11.9146   13.8466    0.0000 C   0  0  0  0  0  0  0  0  0  0  0  0
   10.7011   14.7283    0.0000 C   0  0  0  0  0  0  0  0  0  0  0  0
    9.3308   14.1182    0.0000 C   0  0  0  0  0  0  0  0  0  0  0  0
    7.4918   10.5491    0.0000 N   0  0  0  0  0  0  0  0  0  0  0  0
    1.5000    7.7942    0.0000 C   0  0  0  0  0  0  0  0  0  0  0  0
    0.7500    6.4952    0.0000 C   0  0  0  0  0  0  0  0  0  0  0  0
  1  2  1  0
  2  3  2  0
  3  4  1  0
  4  5  2  0
  5  6  1  0
  6  7  2  0
  7  8  1  0
  8  9  1  0
  9 10  2  0
  9 11  1  0
 11 12  2  0
 12 13  1  0
 13 14  2  0
 14 15  1  0
 15 16  1  0
 16 17  1  0
 17 18  2  0
 18 19  1  0
 19 20  2  0
 19 21  1  0
 21 22  1  0
 22 23  2  0
 23 24  1  0
 24 25  2  0
 25 26  1  0
 26 27  2  0
 21 28  1  0
 14 29  1  0
 29 30  2  0
  7  2  1  0
 30 11  1  0
 28 17  1  0
 27 22  1  0
M  END
>  <molecule_chembl_id>  (997) 
CHEMBL2407736

>  <canonical_smiles>  (997) 
Nc1ccccc1NC(=O)c1ccc(CNC2=NC(=O)C(c3ccccc3)N2)cc1

>  <pchembl_value_mean>  (997) 
7.25

>  <document_chembl_id>  (997) 
CHEMBL2407081

$$$$

     RDKit          2D

 31 34  0  0  0  0  0  0  0  0999 V2000
   -9.7500   -9.0933    0.0000 O   0  0  0  0  0  0  0  0  0  0  0  0
  -10.5000   -7.7942    0.0000 C   0  0  0  0  0  0  0  0  0  0  0  0
   -9.7500   -6.4952    0.0000 C   0  0  0  0  0  0  0  0  0  0  0  0
   -8.2500   -6.4952    0.0000 C   0  0  0  0  0  0  0  0  0  0  0  0
   -7.5000   -5.1962    0.0000 C   0  0  0  0  0  0  0  0  0  0  0  0
   -6.0000   -5.1962    0.0000 C   0  0  0  0  0  0  0  0  0  0  0  0
   -5.2500   -3.8971    0.0000 C   0  0  0  0  0  0  0  0  0  0  0  0
   -3.7500   -3.8971    0.0000 C   0  0  0  0  0  0  0  0  0  0  0  0
   -3.0000   -2.5981    0.0000 N   0  0  0  0  0  0  0  0  0  0  0  0
   -1.5000   -2.5981    0.0000 C   0  0  0  0  0  0  0  0  0  0  0  0
   -0.7500   -3.8971    0.0000 N   0  0  0  0  0  0  0  0  0  0  0  0
    0.7500   -3.8971    0.0000 N   0  0  0  0  0  0  0  0  0  0  0  0
    1.5000   -5.1962    0.0000 C   0  0  0  0  0  0  0  0  0  0  0  0
    0.7500   -6.4952    0.0000 O   0  0  0  0  0  0  0  0  0  0  0  0
    3.0000   -5.1962    0.0000 C   0  0  0  0  0  0  0  0  0  0  0  0
    3.7500   -6.4952    0.0000 C   0  0  0  0  0  0  0  0  0  0  0  0
    5.2500   -6.4952    0.0000 C   0  0  0  0  0  0  0  0  0  0  0  0
    6.0000   -7.7942    0.0000 F   0  0  0  0  0  0  0  0  0  0  0  0
    6.0000   -5.1962    0.0000 C   0  0  0  0  0  0  0  0  0  0  0  0
    5.2500   -3.8971    0.0000 C   0  0  0  0  0  0  0  0  0  0  0  0
    3.7500   -3.8971    0.0000 C   0  0  0  0  0  0  0  0  0  0  0  0
    3.0000   -2.5981    0.0000 N   0  0  0  0  0  0  0  0  0  0  0  0
    1.5000   -2.5981    0.0000 C   0  0  0  0  0  0  0  0  0  0  0  0
    0.7500   -1.2990    0.0000 C   0  0  0  0  0  0  0  0  0  0  0  0
    1.5000    0.0000    0.0000 C   0  0  0  0  0  0  0  0  0  0  0  0
    0.7500    1.2990    0.0000 C   0  0  0  0  0  0  0  0  0  0  0  0
   -0.7500    1.2990    0.0000 C   0  0  0  0  0  0  0  0  0  0  0  0
   -1.5000    0.0000    0.0000 C   0  0  0  0  0  0  0  0  0  0  0  0
   -0.7500   -1.2990    0.0000 C   0  0  0  0  0  0  0  0  0  0  0  0
  -12.0000   -7.7942    0.0000 N   0  0  0  0  0  0  0  0  0  0  0  0
  -12.7500   -9.0933    0.0000 O   0  0  0  0  0  0  0  0  0  0  0  0
  1  2  2  0
  2  3  1  0
  3  4  1  0
  4  5  1  0
  5  6  1  0
  6  7  1  0
  7  8  1  0
  8  9  1  0
  9 10  1  0
 10 11  2  0
 11 12  1  0
 12 13  1  0
 13 14  2  0
 13 15  1  0
 15 16  2  0
 16 17  1  0
 17 18  1  0
 17 19  2  0
 19 20  1  0
 20 21  2  0
 21 22  1  0
 22 23  2  0
 23 24  1  0
 24 25  2  0
 25 26  1  0
 26 27  2  0
 27 28  1  0
 28 29  2  0
  2 30  1  0
 30 31  1  0
 29 10  1  0
 23 12  1  0
 29 24  1  0
 21 15  1  0
M  END
>  <molecule_chembl_id>  (998) 
CHEMBL5093737

>  <canonical_smiles>  (998) 
O=C(CCCCCCNc1nn2c(=O)c3cc(F)ccc3nc2c2ccccc12)NO

>  <pchembl_value_mean>  (998) 
7.27

>  <document_chembl_id>  (998) 
CHEMBL5042505

$$$$

     RDKit          2D

 26 28  0  0  0  0  0  0  0  0999 V2000
    6.0000    0.0000    0.0000 O   0  0  0  0  0  0  0  0  0  0  0  0
    5.2500   -1.2990    0.0000 C   0  0  0  0  0  0  0  0  0  0  0  0
    3.7500   -1.2990    0.0000 C   0  0  0  0  0  0  0  0  0  0  0  0
    3.0000    0.0000    0.0000 C   0  0  0  0  0  0  0  0  0  0  0  0
    1.5000    0.0000    0.0000 C   0  0  0  0  0  0  0  0  0  0  0  0
    0.7500   -1.2990    0.0000 C   0  0  0  0  0  0  0  0  0  0  0  0
   -0.7500   -1.2990    0.0000 C   0  0  0  0  0  0  0  0  0  0  0  0
   -1.5000    0.0000    0.0000 C   0  0  0  0  0  0  0  0  0  0  0  0
   -3.0000    0.0000    0.0000 C   0  0  0  0  0  0  0  0  0  0  0  0
   -3.7500    1.2990    0.0000 C   0  0  0  0  0  0  0  0  0  0  0  0
   -3.0000    2.5981    0.0000 C   0  0  0  0  0  0  0  0  0  0  0  0
   -3.7500    3.8971    0.0000 N   0  0  0  0  0  0  0  0  0  0  0  0
   -3.0000    5.1962    0.0000 C   0  0  0  0  0  0  0  0  0  0  0  0
   -3.0000    6.6962    0.0000 C   0  0  0  0  0  0  0  0  0  0  0  0
   -1.7010    5.9462    0.0000 C   0  0  0  0  0  0  0  0  0  0  0  0
   -5.2500    1.2990    0.0000 C   0  0  0  0  0  0  0  0  0  0  0  0
   -6.0000    2.5981    0.0000 C   0  0  0  0  0  0  0  0  0  0  0  0
   -7.5000    2.5981    0.0000 C   0  0  0  0  0  0  0  0  0  0  0  0
   -8.2500    1.2990    0.0000 C   0  0  0  0  0  0  0  0  0  0  0  0
   -9.7500    1.2990    0.0000 F   0  0  0  0  0  0  0  0  0  0  0  0
   -7.5000    0.0000    0.0000 C   0  0  0  0  0  0  0  0  0  0  0  0
   -6.0000    0.0000    0.0000 C   0  0  0  0  0  0  0  0  0  0  0  0
   -0.7500    1.2990    0.0000 C   0  0  0  0  0  0  0  0  0  0  0  0
    0.7500    1.2990    0.0000 C   0  0  0  0  0  0  0  0  0  0  0  0
    6.0000   -2.5981    0.0000 N   0  0  0  0  0  0  0  0  0  0  0  0
    7.5000   -2.5981    0.0000 O   0  0  0  0  0  0  0  0  0  0  0  0
  1  2  2  0
  2  3  1  0
  3  4  2  3
  4  5  1  0
  5  6  2  0
  6  7  1  0
  7  8  2  0
  8  9  1  0
  9 10  2  3
 10 11  1  0
 11 12  1  0
 12 13  1  0
 13 14  1  0
 14 15  1  0
 10 16  1  0
 16 17  2  0
 17 18  1  0
 18 19  2  0
 19 20  1  0
 19 21  1  0
 21 22  2  0
  8 23  1  0
 23 24  2  0
  2 25  1  0
 25 26  1  0
 24  5  1  0
 15 13  1  0
 22 16  1  0
M  END
>  <molecule_chembl_id>  (999) 
CHEMBL3758457

>  <canonical_smiles>  (999) 
O=C(C=Cc1ccc(C=C(CNC2CC2)c2ccc(F)cc2)cc1)NO

>  <pchembl_value_mean>  (999) 
7.27

>  <document_chembl_id>  (999) 
CHEMBL3758160

$$$$

     RDKit          2D

 31 34  0  0  0  0  0  0  0  0999 V2000
   -9.7500   -9.0933    0.0000 O   0  0  0  0  0  0  0  0  0  0  0  0
  -10.5000   -7.7942    0.0000 C   0  0  0  0  0  0  0  0  0  0  0  0
   -9.7500   -6.4952    0.0000 C   0  0  0  0  0  0  0  0  0  0  0  0
   -8.2500   -6.4952    0.0000 C   0  0  0  0  0  0  0  0  0  0  0  0
   -7.5000   -5.1962    0.0000 C   0  0  0  0  0  0  0  0  0  0  0  0
   -6.0000   -5.1962    0.0000 C   0  0  0  0  0  0  0  0  0  0  0  0
   -5.2500   -3.8971    0.0000 C   0  0  0  0  0  0  0  0  0  0  0  0
   -3.7500   -3.8971    0.0000 C   0  0  0  0  0  0  0  0  0  0  0  0
   -3.0000   -2.5981    0.0000 N   0  0  0  0  0  0  0  0  0  0  0  0
   -1.5000   -2.5981    0.0000 C   0  0  0  0  0  0  0  0  0  0  0  0
   -0.7500   -3.8971    0.0000 N   0  0  0  0  0  0  0  0  0  0  0  0
    0.7500   -3.8971    0.0000 N   0  0  0  0  0  0  0  0  0  0  0  0
    1.5000   -5.1962    0.0000 C   0  0  0  0  0  0  0  0  0  0  0  0
    0.7500   -6.4952    0.0000 O   0  0  0  0  0  0  0  0  0  0  0  0
    3.0000   -5.1962    0.0000 C   0  0  0  0  0  0  0  0  0  0  0  0
    3.7500   -6.4952    0.0000 C   0  0  0  0  0  0  0  0  0  0  0  0
    5.2500   -6.4952    0.0000 C   0  0  0  0  0  0  0  0  0  0  0  0
    6.0000   -7.7942    0.0000 Cl  0  0  0  0  0  0  0  0  0  0  0  0
    6.0000   -5.1962    0.0000 C   0  0  0  0  0  0  0  0  0  0  0  0
    5.2500   -3.8971    0.0000 C   0  0  0  0  0  0  0  0  0  0  0  0
    3.7500   -3.8971    0.0000 C   0  0  0  0  0  0  0  0  0  0  0  0
    3.0000   -2.5981    0.0000 N   0  0  0  0  0  0  0  0  0  0  0  0
    1.5000   -2.5981    0.0000 C   0  0  0  0  0  0  0  0  0  0  0  0
    0.7500   -1.2990    0.0000 C   0  0  0  0  0  0  0  0  0  0  0  0
    1.5000    0.0000    0.0000 C   0  0  0  0  0  0  0  0  0  0  0  0
    0.7500    1.2990    0.0000 C   0  0  0  0  0  0  0  0  0  0  0  0
   -0.7500    1.2990    0.0000 C   0  0  0  0  0  0  0  0  0  0  0  0
   -1.5000    0.0000    0.0000 C   0  0  0  0  0  0  0  0  0  0  0  0
   -0.7500   -1.2990    0.0000 C   0  0  0  0  0  0  0  0  0  0  0  0
  -12.0000   -7.7942    0.0000 N   0  0  0  0  0  0  0  0  0  0  0  0
  -12.7500   -9.0933    0.0000 O   0  0  0  0  0  0  0  0  0  0  0  0
  1  2  2  0
  2  3  1  0
  3  4  1  0
  4  5  1  0
  5  6  1  0
  6  7  1  0
  7  8  1  0
  8  9  1  0
  9 10  1  0
 10 11  2  0
 11 12  1  0
 12 13  1  0
 13 14  2  0
 13 15  1  0
 15 16  2  0
 16 17  1  0
 17 18  1  0
 17 19  2  0
 19 20  1  0
 20 21  2  0
 21 22  1  0
 22 23  2  0
 23 24  1  0
 24 25  2  0
 25 26  1  0
 26 27  2  0
 27 28  1  0
 28 29  2  0
  2 30  1  0
 30 31  1  0
 29 10  1  0
 23 12  1  0
 29 24  1  0
 21 15  1  0
M  END
>  <molecule_chembl_id>  (1000) 
CHEMBL5076796

>  <canonical_smiles>  (1000) 
O=C(CCCCCCNc1nn2c(=O)c3cc(Cl)ccc3nc2c2ccccc12)NO

>  <pchembl_value_mean>  (1000) 
7.28

>  <document_chembl_id>  (1000) 
CHEMBL5042505

$$$$

     RDKit          2D

 24 26  0  0  0  0  0  0  0  0999 V2000
    3.7500   -1.2990    0.0000 C   0  0  0  0  0  0  0  0  0  0  0  0
    3.0000    0.0000    0.0000 O   0  0  0  0  0  0  0  0  0  0  0  0
    1.5000    0.0000    0.0000 C   0  0  0  0  0  0  0  0  0  0  0  0
    0.7500   -1.2990    0.0000 C   0  0  0  0  0  0  0  0  0  0  0  0
   -0.7500   -1.2990    0.0000 C   0  0  0  0  0  0  0  0  0  0  0  0
   -1.5000   -2.5981    0.0000 O   0  0  0  0  0  0  0  0  0  0  0  0
   -3.0000   -2.5981    0.0000 C   0  0  0  0  0  0  0  0  0  0  0  0
   -1.5000    0.0000    0.0000 C   0  0  0  0  0  0  0  0  0  0  0  0
   -0.7500    1.2990    0.0000 C   0  0  0  0  0  0  0  0  0  0  0  0
   -1.5000    2.5981    0.0000 C   0  0  0  0  0  0  0  0  0  0  0  0
   -2.9095    2.0850    0.0000 N   0  0  0  0  0  0  0  0  0  0  0  0
   -4.0586    3.0492    0.0000 C   0  0  0  0  0  0  0  0  0  0  0  0
   -3.7981    4.5264    0.0000 N   0  0  0  0  0  0  0  0  0  0  0  0
   -4.9472    5.4906    0.0000 C   0  0  0  0  0  0  0  0  0  0  0  0
   -6.3567    4.9776    0.0000 C   0  0  0  0  0  0  0  0  0  0  0  0
   -7.5058    5.9418    0.0000 C   0  0  0  0  0  0  0  0  0  0  0  0
   -8.9153    5.4287    0.0000 O   0  0  0  0  0  0  0  0  0  0  0  0
   -7.2453    7.4190    0.0000 N   0  0  0  0  0  0  0  0  0  0  0  0
   -8.3944    8.3832    0.0000 O   0  0  0  0  0  0  0  0  0  0  0  0
   -6.6172    3.5004    0.0000 C   0  0  0  0  0  0  0  0  0  0  0  0
   -5.4681    2.5362    0.0000 N   0  0  0  0  0  0  0  0  0  0  0  0
   -1.7605    4.0753    0.0000 C   0  0  0  0  0  0  0  0  0  0  0  0
   -0.3509    3.5623    0.0000 C   0  0  0  0  0  0  0  0  0  0  0  0
    0.7500    1.2990    0.0000 C   0  0  0  0  0  0  0  0  0  0  0  0
  1  2  1  0
  2  3  1  0
  3  4  2  0
  4  5  1  0
  5  6  1  0
  6  7  1  0
  5  8  2  0
  8  9  1  0
  9 10  1  0
 10 11  1  0
 11 12  1  0
 12 13  2  0
 13 14  1  0
 14 15  2  0
 15 16  1  0
 16 17  2  0
 16 18  1  0
 18 19  1  0
 15 20  1  0
 20 21  2  0
 10 22  1  0
 22 23  1  0
  9 24  2  0
 24  3  1  0
 23 10  1  0
 21 12  1  0
M  END
>  <molecule_chembl_id>  (1001) 
CHEMBL3655998

>  <canonical_smiles>  (1001) 
COc1cc(OC)cc(C2(Nc3ncc(C(=O)NO)cn3)CC2)c1

>  <pchembl_value_mean>  (1001) 
7.28

>  <document_chembl_id>  (1001) 
CHEMBL3639071

$$$$

     RDKit          2D

 21 23  0  0  0  0  0  0  0  0999 V2000
    1.4627   12.4878    0.0000 O   0  0  0  0  0  0  0  0  0  0  0  0
    2.5774   11.4841    0.0000 C   0  0  0  0  0  0  0  0  0  0  0  0
    4.0040   11.9476    0.0000 N   0  0  0  0  0  0  0  0  0  0  0  0
    4.3158   13.4148    0.0000 O   0  0  0  0  0  0  0  0  0  0  0  0
    2.2655   10.0169    0.0000 C   0  0  0  0  0  0  0  0  0  0  0  0
    3.3802    9.0132    0.0000 C   0  0  0  0  0  0  0  0  0  0  0  0
    3.0684    7.5459    0.0000 N   0  0  0  0  0  0  0  0  0  0  0  0
    1.6418    7.0824    0.0000 C   0  0  0  0  0  0  0  0  0  0  0  0
    1.3299    5.6152    0.0000 N   0  0  0  0  0  0  0  0  0  0  0  0
   -0.0967    5.1517    0.0000 C   0  0  0  0  0  0  0  0  0  0  0  0
   -0.4086    3.6844    0.0000 C   0  0  0  0  0  0  0  0  0  0  0  0
   -1.8351    3.2209    0.0000 C   0  0  0  0  0  0  0  0  0  0  0  0
   -2.1470    1.7537    0.0000 C   0  0  0  0  0  0  0  0  0  0  0  0
   -1.0323    0.7500    0.0000 C   0  0  0  0  0  0  0  0  0  0  0  0
    0.3943    1.2135    0.0000 C   0  0  0  0  0  0  0  0  0  0  0  0
    0.7062    2.6807    0.0000 C   0  0  0  0  0  0  0  0  0  0  0  0
    1.2760    0.0000    0.0000 O   0  0  0  0  0  0  0  0  0  0  0  0
    0.3943   -1.2135    0.0000 C   0  0  0  0  0  0  0  0  0  0  0  0
   -1.0323   -0.7500    0.0000 O   0  0  0  0  0  0  0  0  0  0  0  0
    0.5271    8.0861    0.0000 N   0  0  0  0  0  0  0  0  0  0  0  0
    0.8389    9.5533    0.0000 C   0  0  0  0  0  0  0  0  0  0  0  0
  1  2  2  0
  2  3  1  0
  3  4  1  0
  2  5  1  0
  5  6  2  0
  6  7  1  0
  7  8  2  0
  8  9  1  0
  9 10  1  0
 10 11  1  0
 11 12  2  0
 12 13  1  0
 13 14  2  0
 14 15  1  0
 15 16  2  0
 15 17  1  0
 17 18  1  0
 18 19  1  0
  8 20  1  0
 20 21  2  0
 21  5  1  0
 16 11  1  0
 19 14  1  0
M  END
>  <molecule_chembl_id>  (1002) 
CHEMBL3655929

>  <canonical_smiles>  (1002) 
O=C(NO)c1cnc(NCc2ccc3c(c2)OCO3)nc1

>  <pchembl_value_mean>  (1002) 
7.28

>  <document_chembl_id>  (1002) 
CHEMBL3639071

$$$$

     RDKit          2D

 37 39  0  0  0  0  0  0  0  0999 V2000
   -4.2606  -14.8714    0.0000 C   0  0  0  0  0  0  0  0  0  0  0  0
   -4.1038  -13.3796    0.0000 C   0  0  0  0  0  0  0  0  0  0  0  0
   -2.7335  -12.7695    0.0000 C   0  0  0  0  0  0  0  0  0  0  0  0
   -1.5200  -13.6512    0.0000 O   0  0  0  0  0  0  0  0  0  0  0  0
   -2.5767  -11.2778    0.0000 C   0  0  0  0  0  0  0  0  0  0  0  0
   -1.2064  -10.6676    0.0000 C   0  0  0  0  0  0  0  0  0  0  0  0
   -1.0496   -9.1759    0.0000 C   0  0  0  0  0  0  0  0  0  0  0  0
    0.3207   -8.5658    0.0000 C   0  0  0  0  0  0  0  0  0  0  0  0
    0.4775   -7.0740    0.0000 C   0  0  0  0  0  0  0  0  0  0  0  0
    1.8478   -6.4639    0.0000 C   0  0  0  0  0  0  0  0  0  0  0  0
    3.0613   -7.3456    0.0000 N   0  0  0  0  0  0  0  0  0  0  0  0
    2.9046   -8.8373    0.0000 C   0  0  0  0  0  0  0  0  0  0  0  0
    1.5342   -9.4474    0.0000 O   0  0  0  0  0  0  0  0  0  0  0  0
    4.1181   -9.7190    0.0000 C   0  0  0  0  0  0  0  0  0  0  0  0
    5.5447   -9.2555    0.0000 C   0  0  0  0  0  0  0  0  0  0  0  0
    6.4263  -10.4690    0.0000 N   0  0  0  0  0  0  0  0  0  0  0  0
    5.5447  -11.6825    0.0000 C   0  0  0  0  0  0  0  0  0  0  0  0
    4.1181  -11.2190    0.0000 S   0  0  0  0  0  0  0  0  0  0  0  0
    2.0046   -4.9721    0.0000 C   0  0  0  0  0  0  0  0  0  0  0  0
    0.8899   -3.9684    0.0000 N   0  0  0  0  0  0  0  0  0  0  0  0
    1.5000   -2.5981    0.0000 C   0  0  0  0  0  0  0  0  0  0  0  0
    0.7500   -1.2990    0.0000 C   0  0  0  0  0  0  0  0  0  0  0  0
    1.5000    0.0000    0.0000 C   0  0  0  0  0  0  0  0  0  0  0  0
    0.7500    1.2990    0.0000 C   0  0  0  0  0  0  0  0  0  0  0  0
   -0.7500    1.2990    0.0000 C   0  0  0  0  0  0  0  0  0  0  0  0
   -1.5000    0.0000    0.0000 C   0  0  0  0  0  0  0  0  0  0  0  0
   -0.7500   -1.2990    0.0000 C   0  0  0  0  0  0  0  0  0  0  0  0
    2.9918   -2.7549    0.0000 N   0  0  0  0  0  0  0  0  0  0  0  0
    3.3037   -4.2221    0.0000 C   0  0  0  0  0  0  0  0  0  0  0  0
    4.6740   -4.8322    0.0000 C   0  0  0  0  0  0  0  0  0  0  0  0
    4.8308   -6.3240    0.0000 O   0  0  0  0  0  0  0  0  0  0  0  0
    5.8875   -3.9505    0.0000 N   0  0  0  0  0  0  0  0  0  0  0  0
    7.2578   -4.5606    0.0000 C   0  0  0  0  0  0  0  0  0  0  0  0
    8.4713   -3.6789    0.0000 C   0  0  0  0  0  0  0  0  0  0  0  0
    9.8417   -4.2890    0.0000 N   0  0  0  0  0  0  0  0  0  0  0  0
   11.0552   -3.4074    0.0000 C   0  0  0  0  0  0  0  0  0  0  0  0
    9.9984   -5.7808    0.0000 C   0  0  0  0  0  0  0  0  0  0  0  0
  1  2  1  0
  2  3  1  0
  3  4  2  0
  3  5  1  0
  5  6  1  0
  6  7  1  0
  7  8  1  0
  8  9  1  0
  9 10  1  0
 10 11  1  0
 11 12  1  0
 12 13  2  0
 12 14  1  0
 14 15  2  0
 15 16  1  0
 16 17  2  0
 17 18  1  0
 10 19  1  0
 19 20  1  0
 20 21  1  0
 21 22  1  0
 22 23  2  0
 23 24  1  0
 24 25  2  0
 25 26  1  0
 26 27  2  0
 21 28  2  0
 28 29  1  0
 29 30  1  0
 30 31  2  0
 30 32  1  0
 32 33  1  0
 33 34  1  0
 34 35  1  0
 35 36  1  0
 35 37  1  0
 18 14  1  0
 29 19  2  0
 27 22  1  0
M  END
>  <molecule_chembl_id>  (1003) 
CHEMBL4761318

>  <canonical_smiles>  (1003) 
CCC(=O)CCCCCC(NC(=O)c1cncs1)c1[nH]c(-c2ccccc2)nc1C(=O)NCCN(C)C

>  <pchembl_value_mean>  (1003) 
7.28

>  <document_chembl_id>  (1003) 
CHEMBL4665726

$$$$

     RDKit          2D

 22 24  0  0  0  0  0  0  0  0999 V2000
    3.7500   -1.2990    0.0000 C   0  0  0  0  0  0  0  0  0  0  0  0
    3.0000    0.0000    0.0000 O   0  0  0  0  0  0  0  0  0  0  0  0
    1.5000    0.0000    0.0000 C   0  0  0  0  0  0  0  0  0  0  0  0
    0.7500   -1.2990    0.0000 C   0  0  0  0  0  0  0  0  0  0  0  0
   -0.7500   -1.2990    0.0000 C   0  0  0  0  0  0  0  0  0  0  0  0
   -1.5000    0.0000    0.0000 C   0  0  0  0  0  0  0  0  0  0  0  0
   -0.7500    1.2990    0.0000 C   0  0  0  0  0  0  0  0  0  0  0  0
   -1.5000    2.5981    0.0000 C   0  0  0  0  0  0  0  0  0  0  0  0
   -2.9095    2.0850    0.0000 N   0  0  0  0  0  0  0  0  0  0  0  0
   -4.0586    3.0492    0.0000 C   0  0  0  0  0  0  0  0  0  0  0  0
   -3.7981    4.5264    0.0000 N   0  0  0  0  0  0  0  0  0  0  0  0
   -4.9472    5.4906    0.0000 C   0  0  0  0  0  0  0  0  0  0  0  0
   -6.3567    4.9776    0.0000 C   0  0  0  0  0  0  0  0  0  0  0  0
   -7.5058    5.9418    0.0000 C   0  0  0  0  0  0  0  0  0  0  0  0
   -8.9153    5.4287    0.0000 O   0  0  0  0  0  0  0  0  0  0  0  0
   -7.2453    7.4190    0.0000 N   0  0  0  0  0  0  0  0  0  0  0  0
   -8.3944    8.3832    0.0000 O   0  0  0  0  0  0  0  0  0  0  0  0
   -6.6172    3.5004    0.0000 C   0  0  0  0  0  0  0  0  0  0  0  0
   -5.4681    2.5362    0.0000 N   0  0  0  0  0  0  0  0  0  0  0  0
   -1.7605    4.0753    0.0000 C   0  0  0  0  0  0  0  0  0  0  0  0
   -0.3509    3.5623    0.0000 C   0  0  0  0  0  0  0  0  0  0  0  0
    0.7500    1.2990    0.0000 C   0  0  0  0  0  0  0  0  0  0  0  0
  1  2  1  0
  2  3  1  0
  3  4  2  0
  4  5  1  0
  5  6  2  0
  6  7  1  0
  7  8  1  0
  8  9  1  0
  9 10  1  0
 10 11  2  0
 11 12  1  0
 12 13  2  0
 13 14  1  0
 14 15  2  0
 14 16  1  0
 16 17  1  0
 13 18  1  0
 18 19  2  0
  8 20  1  0
 20 21  1  0
  7 22  2  0
 22  3  1  0
 21  8  1  0
 19 10  1  0
M  END
>  <molecule_chembl_id>  (1004) 
CHEMBL3655989

>  <canonical_smiles>  (1004) 
COc1cccc(C2(Nc3ncc(C(=O)NO)cn3)CC2)c1

>  <pchembl_value_mean>  (1004) 
7.28

>  <document_chembl_id>  (1004) 
CHEMBL3639071

$$$$

     RDKit          2D

 32 34  0  0  0  0  0  0  0  0999 V2000
   -4.2606  -14.8714    0.0000 C   0  0  0  0  0  0  0  0  0  0  0  0
   -4.1038  -13.3796    0.0000 C   0  0  0  0  0  0  0  0  0  0  0  0
   -2.7335  -12.7695    0.0000 C   0  0  0  0  0  0  0  0  0  0  0  0
   -1.5200  -13.6512    0.0000 O   0  0  0  0  0  0  0  0  0  0  0  0
   -2.5767  -11.2778    0.0000 C   0  0  0  0  0  0  0  0  0  0  0  0
   -1.2064  -10.6676    0.0000 C   0  0  0  0  0  0  0  0  0  0  0  0
   -1.0496   -9.1759    0.0000 C   0  0  0  0  0  0  0  0  0  0  0  0
    0.3207   -8.5658    0.0000 C   0  0  0  0  0  0  0  0  0  0  0  0
    0.4775   -7.0740    0.0000 C   0  0  0  0  0  0  0  0  0  0  0  0
    1.8478   -6.4639    0.0000 C   0  0  0  0  0  0  0  0  0  0  0  0
    3.0613   -7.3456    0.0000 N   0  0  0  0  0  0  0  0  0  0  0  0
    2.9046   -8.8373    0.0000 C   0  0  0  0  0  0  0  0  0  0  0  0
    1.5342   -9.4474    0.0000 O   0  0  0  0  0  0  0  0  0  0  0  0
    4.1181   -9.7190    0.0000 C   0  0  0  0  0  0  0  0  0  0  0  0
    5.5447   -9.2555    0.0000 C   0  0  0  0  0  0  0  0  0  0  0  0
    6.4263  -10.4690    0.0000 N   0  0  0  0  0  0  0  0  0  0  0  0
    5.5447  -11.6825    0.0000 C   0  0  0  0  0  0  0  0  0  0  0  0
    4.1181  -11.2190    0.0000 S   0  0  0  0  0  0  0  0  0  0  0  0
    2.0046   -4.9721    0.0000 C   0  0  0  0  0  0  0  0  0  0  0  0
    0.8899   -3.9684    0.0000 N   0  0  0  0  0  0  0  0  0  0  0  0
    1.5000   -2.5981    0.0000 C   0  0  0  0  0  0  0  0  0  0  0  0
    0.7500   -1.2990    0.0000 C   0  0  0  0  0  0  0  0  0  0  0  0
    1.5000    0.0000    0.0000 C   0  0  0  0  0  0  0  0  0  0  0  0
    0.7500    1.2990    0.0000 C   0  0  0  0  0  0  0  0  0  0  0  0
   -0.7500    1.2990    0.0000 C   0  0  0  0  0  0  0  0  0  0  0  0
   -1.5000    2.5981    0.0000 F   0  0  0  0  0  0  0  0  0  0  0  0
   -1.5000    0.0000    0.0000 C   0  0  0  0  0  0  0  0  0  0  0  0
   -0.7500   -1.2990    0.0000 C   0  0  0  0  0  0  0  0  0  0  0  0
    2.9918   -2.7549    0.0000 N   0  0  0  0  0  0  0  0  0  0  0  0
    3.3037   -4.2221    0.0000 C   0  0  0  0  0  0  0  0  0  0  0  0
    4.6740   -4.8322    0.0000 C   0  0  0  0  0  0  0  0  0  0  0  0
    6.0443   -5.4423    0.0000 N   0  0  0  0  0  0  0  0  0  0  0  0
  1  2  1  0
  2  3  1  0
  3  4  2  0
  3  5  1  0
  5  6  1  0
  6  7  1  0
  7  8  1  0
  8  9  1  0
  9 10  1  0
 10 11  1  0
 11 12  1  0
 12 13  2  0
 12 14  1  0
 14 15  2  0
 15 16  1  0
 16 17  2  0
 17 18  1  0
 10 19  1  0
 19 20  1  0
 20 21  1  0
 21 22  1  0
 22 23  2  0
 23 24  1  0
 24 25  2  0
 25 26  1  0
 25 27  1  0
 27 28  2  0
 21 29  2  0
 29 30  1  0
 30 31  1  0
 31 32  3  0
 18 14  1  0
 30 19  2  0
 28 22  1  0
M  END
>  <molecule_chembl_id>  (1005) 
CHEMBL4760209

>  <canonical_smiles>  (1005) 
CCC(=O)CCCCCC(NC(=O)c1cncs1)c1[nH]c(-c2ccc(F)cc2)nc1C#N

>  <pchembl_value_mean>  (1005) 
7.29

>  <document_chembl_id>  (1005) 
CHEMBL4665726

$$$$

     RDKit          2D

 38 42  0  0  0  0  0  0  0  0999 V2000
   10.7824  -15.8378    0.0000 C   0  0  0  0  0  0  0  0  0  0  0  0
    9.4121  -15.2277    0.0000 C   0  0  0  0  0  0  0  0  0  0  0  0
    9.2553  -13.7359    0.0000 C   0  0  0  0  0  0  0  0  0  0  0  0
   10.4688  -12.8543    0.0000 O   0  0  0  0  0  0  0  0  0  0  0  0
    7.8850  -13.1258    0.0000 C   0  0  0  0  0  0  0  0  0  0  0  0
    7.7282  -11.6340    0.0000 C   0  0  0  0  0  0  0  0  0  0  0  0
    6.3579  -11.0239    0.0000 C   0  0  0  0  0  0  0  0  0  0  0  0
    6.2011   -9.5322    0.0000 C   0  0  0  0  0  0  0  0  0  0  0  0
    4.8308   -8.9221    0.0000 C   0  0  0  0  0  0  0  0  0  0  0  0
    4.6740   -7.4303    0.0000 C   0  0  0  0  0  0  0  0  0  0  0  0
    5.8875   -6.5486    0.0000 N   0  0  0  0  0  0  0  0  0  0  0  0
    7.2578   -7.1587    0.0000 C   0  0  0  0  0  0  0  0  0  0  0  0
    7.4146   -8.6505    0.0000 O   0  0  0  0  0  0  0  0  0  0  0  0
    8.4713   -6.2770    0.0000 C   0  0  0  0  0  0  0  0  0  0  0  0
    9.0814   -4.9067    0.0000 C   0  0  0  0  0  0  0  0  0  0  0  0
    9.9631   -6.1202    0.0000 C   0  0  0  0  0  0  0  0  0  0  0  0
   10.1199   -7.6120    0.0000 C   0  0  0  0  0  0  0  0  0  0  0  0
   11.4902   -8.2221    0.0000 C   0  0  0  0  0  0  0  0  0  0  0  0
   12.7038   -7.3404    0.0000 O   0  0  0  0  0  0  0  0  0  0  0  0
   12.5470   -5.8487    0.0000 C   0  0  0  0  0  0  0  0  0  0  0  0
   11.1766   -5.2386    0.0000 C   0  0  0  0  0  0  0  0  0  0  0  0
    3.3037   -6.8202    0.0000 C   0  0  0  0  0  0  0  0  0  0  0  0
    2.0046   -7.5702    0.0000 N   0  0  0  0  0  0  0  0  0  0  0  0
    0.8899   -6.5665    0.0000 C   0  0  0  0  0  0  0  0  0  0  0  0
    1.5000   -5.1962    0.0000 C   0  0  0  0  0  0  0  0  0  0  0  0
    0.7500   -3.8971    0.0000 C   0  0  0  0  0  0  0  0  0  0  0  0
    1.5000   -2.5981    0.0000 C   0  0  0  0  0  0  0  0  0  0  0  0
    0.7500   -1.2990    0.0000 C   0  0  0  0  0  0  0  0  0  0  0  0
    1.5000    0.0000    0.0000 C   0  0  0  0  0  0  0  0  0  0  0  0
    0.7500    1.2990    0.0000 C   0  0  0  0  0  0  0  0  0  0  0  0
   -0.7500    1.2990    0.0000 C   0  0  0  0  0  0  0  0  0  0  0  0
   -1.5000    0.0000    0.0000 C   0  0  0  0  0  0  0  0  0  0  0  0
   -0.7500   -1.2990    0.0000 C   0  0  0  0  0  0  0  0  0  0  0  0
   -1.5000   -2.5981    0.0000 N   0  0  0  0  0  0  0  0  0  0  0  0
   -0.7500   -3.8971    0.0000 C   0  0  0  0  0  0  0  0  0  0  0  0
   -1.5000   -5.1962    0.0000 O   0  0  0  0  0  0  0  0  0  0  0  0
   -3.0000   -5.1962    0.0000 C   0  0  0  0  0  0  0  0  0  0  0  0
    2.9918   -5.3529    0.0000 N   0  0  0  0  0  0  0  0  0  0  0  0
  1  2  1  0
  2  3  1  0
  3  4  2  0
  3  5  1  0
  5  6  1  0
  6  7  1  0
  7  8  1  0
  8  9  1  0
  9 10  1  0
 10 11  1  0
 11 12  1  0
 12 13  2  0
 12 14  1  0
 14 15  1  0
 15 16  1  0
 16 17  1  0
 17 18  1  0
 18 19  1  0
 19 20  1  0
 20 21  1  0
 10 22  1  0
 22 23  2  0
 23 24  1  0
 24 25  2  0
 25 26  1  0
 26 27  2  0
 27 28  1  0
 28 29  2  0
 29 30  1  0
 30 31  2  0
 31 32  1  0
 32 33  2  0
 33 34  1  0
 34 35  2  0
 35 36  1  0
 36 37  1  0
 25 38  1  0
 16 14  1  0
 38 22  1  0
 21 16  1  0
 35 26  1  0
 33 28  1  0
M  END
>  <molecule_chembl_id>  (1006) 
CHEMBL4649561

>  <canonical_smiles>  (1006) 
CCC(=O)CCCCCC(NC(=O)C1CC12CCOCC2)c1ncc(-c2cc3ccccc3nc2OC)[nH]1

>  <pchembl_value_mean>  (1006) 
7.29

>  <document_chembl_id>  (1006) 
CHEMBL4622849

$$$$

     RDKit          2D

 29 31  0  0  0  0  0  0  0  0999 V2000
  -19.1354   -5.8170    0.0000 C   0  0  0  0  0  0  0  0  0  0  0  0
  -18.0207   -6.8207    0.0000 C   0  0  0  0  0  0  0  0  0  0  0  0
  -16.5941   -6.3572    0.0000 C   0  0  0  0  0  0  0  0  0  0  0  0
  -15.4794   -7.3609    0.0000 N   0  0  0  0  0  0  0  0  0  0  0  0
  -14.0528   -6.8974    0.0000 N   0  0  0  0  0  0  0  0  0  0  0  0
  -12.9381   -7.9010    0.0000 C   0  0  0  0  0  0  0  0  0  0  0  0
  -13.2499   -9.3683    0.0000 O   0  0  0  0  0  0  0  0  0  0  0  0
  -11.5115   -7.4375    0.0000 C   0  0  0  0  0  0  0  0  0  0  0  0
  -10.3968   -8.4412    0.0000 C   0  0  0  0  0  0  0  0  0  0  0  0
   -8.9702   -7.9777    0.0000 C   0  0  0  0  0  0  0  0  0  0  0  0
   -8.6583   -6.5105    0.0000 C   0  0  0  0  0  0  0  0  0  0  0  0
   -7.2317   -6.0469    0.0000 C   0  0  0  0  0  0  0  0  0  0  0  0
   -6.1170   -7.0506    0.0000 C   0  0  0  0  0  0  0  0  0  0  0  0
   -4.6904   -6.5871    0.0000 C   0  0  0  0  0  0  0  0  0  0  0  0
   -4.3786   -5.1199    0.0000 N   0  0  0  0  0  0  0  0  0  0  0  0
   -2.9520   -4.6564    0.0000 C   0  0  0  0  0  0  0  0  0  0  0  0
   -2.6401   -3.1891    0.0000 C   0  0  0  0  0  0  0  0  0  0  0  0
   -1.2135   -2.7256    0.0000 C   0  0  0  0  0  0  0  0  0  0  0  0
   -0.0000   -3.6073    0.0000 C   0  0  0  0  0  0  0  0  0  0  0  0
    0.0000   -5.1073    0.0000 C   0  0  0  0  0  0  0  0  0  0  0  0
    1.2135   -2.7256    0.0000 N   0  0  0  0  0  0  0  0  0  0  0  0
    0.7500   -1.2990    0.0000 C   0  0  0  0  0  0  0  0  0  0  0  0
    1.5000    0.0000    0.0000 C   0  0  0  0  0  0  0  0  0  0  0  0
    0.7500    1.2990    0.0000 C   0  0  0  0  0  0  0  0  0  0  0  0
   -0.7500    1.2990    0.0000 C   0  0  0  0  0  0  0  0  0  0  0  0
   -1.5000    0.0000    0.0000 C   0  0  0  0  0  0  0  0  0  0  0  0
   -0.7500   -1.2990    0.0000 C   0  0  0  0  0  0  0  0  0  0  0  0
   -6.4289   -8.5179    0.0000 C   0  0  0  0  0  0  0  0  0  0  0  0
   -7.8555   -8.9814    0.0000 C   0  0  0  0  0  0  0  0  0  0  0  0
  1  2  1  0
  2  3  1  0
  3  4  1  0
  4  5  1  0
  5  6  1  0
  6  7  2  0
  6  8  1  0
  8  9  2  3
  9 10  1  0
 10 11  2  0
 11 12  1  0
 12 13  2  0
 13 14  1  0
 14 15  1  0
 15 16  1  0
 16 17  1  0
 17 18  1  0
 18 19  2  0
 19 20  1  0
 19 21  1  0
 21 22  1  0
 22 23  2  0
 23 24  1  0
 24 25  2  0
 25 26  1  0
 26 27  2  0
 13 28  1  0
 28 29  2  0
 29 10  1  0
 27 18  1  0
 27 22  1  0
M  END
>  <molecule_chembl_id>  (1007) 
CHEMBL4597954

>  <canonical_smiles>  (1007) 
CCCNNC(=O)C=Cc1ccc(CNCCc2c(C)[nH]c3ccccc23)cc1

>  <pchembl_value_mean>  (1007) 
7.3

>  <document_chembl_id>  (1007) 
CHEMBL5042504

$$$$

     RDKit          2D

 36 39  0  0  0  0  0  0  0  0999 V2000
   -2.4240  -16.5235    0.0000 C   0  0  0  0  0  0  0  0  0  0  0  0
   -1.0537  -15.9134    0.0000 C   0  0  0  0  0  0  0  0  0  0  0  0
    0.2454  -16.6634    0.0000 C   0  0  0  0  0  0  0  0  0  0  0  0
    1.3601  -15.6597    0.0000 O   0  0  0  0  0  0  0  0  0  0  0  0
    0.7500  -14.2894    0.0000 C   0  0  0  0  0  0  0  0  0  0  0  0
    1.5000  -12.9904    0.0000 C   0  0  0  0  0  0  0  0  0  0  0  0
    3.0000  -12.9904    0.0000 O   0  0  0  0  0  0  0  0  0  0  0  0
    0.7500  -11.6913    0.0000 C   0  0  0  0  0  0  0  0  0  0  0  0
    1.5000  -10.3923    0.0000 C   0  0  0  0  0  0  0  0  0  0  0  0
    0.7500   -9.0933    0.0000 C   0  0  0  0  0  0  0  0  0  0  0  0
    1.5000   -7.7942    0.0000 C   0  0  0  0  0  0  0  0  0  0  0  0
    0.7500   -6.4952    0.0000 C   0  0  0  0  0  0  0  0  0  0  0  0
    1.5000   -5.1962    0.0000 C   0  0  0  0  0  0  0  0  0  0  0  0
    0.7500   -3.8971    0.0000 N   0  0  0  0  0  0  0  0  0  0  0  0
    1.5000   -2.5981    0.0000 C   0  0  0  0  0  0  0  0  0  0  0  0
    3.0000   -2.5981    0.0000 O   0  0  0  0  0  0  0  0  0  0  0  0
    0.7500   -1.2990    0.0000 C   0  0  0  0  0  0  0  0  0  0  0  0
    1.5000    0.0000    0.0000 C   0  0  0  0  0  0  0  0  0  0  0  0
    0.7500    1.2990    0.0000 C   0  0  0  0  0  0  0  0  0  0  0  0
   -0.7500    1.2990    0.0000 N   0  0  0  0  0  0  0  0  0  0  0  0
   -1.5000    2.5981    0.0000 C   0  0  0  0  0  0  0  0  0  0  0  0
   -1.5000    0.0000    0.0000 C   0  0  0  0  0  0  0  0  0  0  0  0
   -0.7500   -1.2990    0.0000 C   0  0  0  0  0  0  0  0  0  0  0  0
    3.0000   -5.1962    0.0000 C   0  0  0  0  0  0  0  0  0  0  0  0
    3.8817   -3.9826    0.0000 N   0  0  0  0  0  0  0  0  0  0  0  0
    5.3083   -4.4462    0.0000 C   0  0  0  0  0  0  0  0  0  0  0  0
    5.3083   -5.9462    0.0000 C   0  0  0  0  0  0  0  0  0  0  0  0
    6.5218   -6.8278    0.0000 C   0  0  0  0  0  0  0  0  0  0  0  0
    6.3650   -8.3196    0.0000 C   0  0  0  0  0  0  0  0  0  0  0  0
    7.5785   -9.2013    0.0000 C   0  0  0  0  0  0  0  0  0  0  0  0
    8.9488   -8.5912    0.0000 C   0  0  0  0  0  0  0  0  0  0  0  0
   10.1624   -9.4729    0.0000 F   0  0  0  0  0  0  0  0  0  0  0  0
    9.1056   -7.0994    0.0000 C   0  0  0  0  0  0  0  0  0  0  0  0
    7.8921   -6.2177    0.0000 C   0  0  0  0  0  0  0  0  0  0  0  0
    3.8817   -6.4097    0.0000 N   0  0  0  0  0  0  0  0  0  0  0  0
   -0.7418  -14.4462    0.0000 N   0  0  0  0  0  0  0  0  0  0  0  0
  1  2  1  0
  2  3  2  0
  3  4  1  0
  4  5  1  0
  5  6  1  0
  6  7  2  0
  6  8  1  0
  8  9  1  0
  9 10  1  0
 10 11  1  0
 11 12  1  0
 12 13  1  0
 13 14  1  0
 14 15  1  0
 15 16  2  0
 15 17  1  0
 17 18  1  0
 18 19  1  0
 19 20  1  0
 20 21  1  0
 20 22  1  0
 22 23  1  0
 13 24  1  0
 24 25  2  0
 25 26  1  0
 26 27  2  0
 27 28  1  0
 28 29  2  0
 29 30  1  0
 30 31  2  0
 31 32  1  0
 31 33  1  0
 33 34  2  0
 27 35  1  0
  5 36  2  0
 36  2  1  0
 23 17  1  0
 35 24  1  0
 34 28  1  0
M  END
>  <molecule_chembl_id>  (1008) 
CHEMBL4633968

>  <canonical_smiles>  (1008) 
Cc1coc(C(=O)CCCCCC(NC(=O)C2CCN(C)CC2)c2ncc(-c3ccc(F)cc3)[nH]2)n1

>  <pchembl_value_mean>  (1008) 
7.3

>  <document_chembl_id>  (1008) 
CHEMBL4622967

$$$$

     RDKit          2D

 38 41  0  0  0  0  0  0  0  0999 V2000
  -15.1059  -14.3614    0.0000 O   0  0  0  0  0  0  0  0  0  0  0  0
  -13.9568  -15.3255    0.0000 C   0  0  0  0  0  0  0  0  0  0  0  0
  -12.5473  -14.8125    0.0000 C   0  0  0  0  0  0  0  0  0  0  0  0
  -12.2868  -13.3353    0.0000 C   0  0  0  0  0  0  0  0  0  0  0  0
  -10.8772  -12.8223    0.0000 C   0  0  0  0  0  0  0  0  0  0  0  0
  -10.6168  -11.3451    0.0000 C   0  0  0  0  0  0  0  0  0  0  0  0
   -9.2072  -10.8320    0.0000 C   0  0  0  0  0  0  0  0  0  0  0  0
   -8.9468   -9.3548    0.0000 C   0  0  0  0  0  0  0  0  0  0  0  0
   -7.5372   -8.8418    0.0000 O   0  0  0  0  0  0  0  0  0  0  0  0
   -7.2768   -7.3646    0.0000 C   0  0  0  0  0  0  0  0  0  0  0  0
   -8.4258   -6.4004    0.0000 C   0  0  0  0  0  0  0  0  0  0  0  0
   -8.1653   -4.9232    0.0000 C   0  0  0  0  0  0  0  0  0  0  0  0
   -6.8777   -4.0753    0.0000 C   0  0  0  0  0  0  0  0  0  0  0  0
   -6.6172   -5.5525    0.0000 C   0  0  0  0  0  0  0  0  0  0  0  0
   -5.8672   -6.8515    0.0000 C   0  0  0  0  0  0  0  0  0  0  0  0
   -4.7181   -7.8157    0.0000 C   0  0  0  0  0  0  0  0  0  0  0  0
   -3.3086   -8.3287    0.0000 O   0  0  0  0  0  0  0  0  0  0  0  0
   -1.8086   -8.3287    0.0000 C   0  0  0  0  0  0  0  0  0  0  0  0
   -0.3991   -7.8157    0.0000 C   0  0  0  0  0  0  0  0  0  0  0  0
    0.7500   -6.8515    0.0000 C   0  0  0  0  0  0  0  0  0  0  0  0
    1.5000   -5.5525    0.0000 C   0  0  0  0  0  0  0  0  0  0  0  0
    1.7605   -4.0753    0.0000 O   0  0  0  0  0  0  0  0  0  0  0  0
    1.5000   -2.5981    0.0000 C   0  0  0  0  0  0  0  0  0  0  0  0
    0.7500   -1.2990    0.0000 C   0  0  0  0  0  0  0  0  0  0  0  0
    1.5000    0.0000    0.0000 C   0  0  0  0  0  0  0  0  0  0  0  0
    0.7500    1.2990    0.0000 C   0  0  0  0  0  0  0  0  0  0  0  0
   -0.7500    1.2990    0.0000 C   0  0  0  0  0  0  0  0  0  0  0  0
   -1.5000    0.0000    0.0000 C   0  0  0  0  0  0  0  0  0  0  0  0
   -0.7500   -1.2990    0.0000 C   0  0  0  0  0  0  0  0  0  0  0  0
   -3.3086    0.1782    0.0000 C   0  0  0  0  0  0  0  0  0  0  0  0
   -4.3672    1.2990    0.0000 C   0  0  0  0  0  0  0  0  0  0  0  0
   -5.8672    1.2990    0.0000 C   0  0  0  0  0  0  0  0  0  0  0  0
   -6.6172    0.0000    0.0000 N   0  0  0  0  0  0  0  0  0  0  0  0
   -5.8672   -1.2990    0.0000 C   0  0  0  0  0  0  0  0  0  0  0  0
   -4.7181   -0.3349    0.0000 N   0  0  0  0  0  0  0  0  0  0  0  0
   -6.6172   -2.5981    0.0000 N   0  0  0  0  0  0  0  0  0  0  0  0
  -14.2173  -16.8027    0.0000 N   0  0  0  0  0  0  0  0  0  0  0  0
  -15.6268  -17.3158    0.0000 O   0  0  0  0  0  0  0  0  0  0  0  0
  1  2  2  0
  2  3  1  0
  3  4  1  0
  4  5  1  0
  5  6  1  0
  6  7  1  0
  7  8  1  0
  8  9  1  0
  9 10  1  0
 10 11  2  0
 11 12  1  0
 12 13  2  0
 13 14  1  0
 14 15  2  0
 15 16  1  0
 16 17  1  0
 17 18  1  0
 18 19  1  0
 19 20  2  0
 20 21  1  0
 21 22  1  0
 22 23  1  0
 23 24  1  0
 24 25  2  0
 25 26  1  0
 26 27  2  0
 27 28  1  0
 28 29  2  0
 28 30  1  0
 30 31  2  0
 31 32  1  0
 32 33  2  0
 33 34  1  0
 34 35  2  0
 34 36  1  0
  2 37  1  0
 37 38  1  0
 15 10  1  0
 29 24  1  0
 35 30  1  0
 36 13  1  0
M  END
>  <molecule_chembl_id>  (1009) 
CHEMBL3917405

>  <canonical_smiles>  (1009) 
O=C(CCCCCCOc1ccc2cc1COCC=CCOCc1cccc(c1)-c1ccnc(n1)N2)NO

>  <pchembl_value_mean>  (1009) 
7.31

>  <document_chembl_id>  (1009) 
CHEMBL3877241

$$$$

     RDKit          2D

 27 29  0  0  0  0  0  0  0  0999 V2000
    3.7500   -1.2990    0.0000 C   0  0  0  0  0  0  0  0  0  0  0  0
    3.0000    0.0000    0.0000 N   0  0  0  0  0  0  0  0  0  0  0  0
    3.7500    1.2990    0.0000 C   0  0  0  0  0  0  0  0  0  0  0  0
    1.5000    0.0000    0.0000 C   0  0  0  0  0  0  0  0  0  0  0  0
    0.7500   -1.2990    0.0000 C   0  0  0  0  0  0  0  0  0  0  0  0
   -0.7500   -1.2990    0.0000 C   0  0  0  0  0  0  0  0  0  0  0  0
   -1.5000    0.0000    0.0000 C   0  0  0  0  0  0  0  0  0  0  0  0
   -3.0000    0.0000    0.0000 C   0  0  0  0  0  0  0  0  0  0  0  0
   -2.8432   -1.4918    0.0000 C   0  0  0  0  0  0  0  0  0  0  0  0
   -1.4729   -2.1019    0.0000 O   0  0  0  0  0  0  0  0  0  0  0  0
   -4.0567   -2.3735    0.0000 N   0  0  0  0  0  0  0  0  0  0  0  0
   -3.8999   -3.8652    0.0000 C   0  0  0  0  0  0  0  0  0  0  0  0
   -5.1135   -4.7469    0.0000 C   0  0  0  0  0  0  0  0  0  0  0  0
   -4.9567   -6.2387    0.0000 C   0  0  0  0  0  0  0  0  0  0  0  0
   -3.5864   -6.8488    0.0000 C   0  0  0  0  0  0  0  0  0  0  0  0
   -3.4296   -8.3406    0.0000 C   0  0  0  0  0  0  0  0  0  0  0  0
   -2.0592   -8.9507    0.0000 O   0  0  0  0  0  0  0  0  0  0  0  0
   -4.6431   -9.2223    0.0000 N   0  0  0  0  0  0  0  0  0  0  0  0
   -4.4863  -10.7141    0.0000 O   0  0  0  0  0  0  0  0  0  0  0  0
   -2.3728   -5.9671    0.0000 C   0  0  0  0  0  0  0  0  0  0  0  0
   -2.5296   -4.4753    0.0000 C   0  0  0  0  0  0  0  0  0  0  0  0
   -4.4672   -0.3119    0.0000 C   0  0  0  0  0  0  0  0  0  0  0  0
   -5.2172    0.9872    0.0000 C   0  0  0  0  0  0  0  0  0  0  0  0
   -4.2135    2.1019    0.0000 C   0  0  0  0  0  0  0  0  0  0  0  0
   -2.8432    1.4918    0.0000 C   0  0  0  0  0  0  0  0  0  0  0  0
   -0.7500    1.2990    0.0000 C   0  0  0  0  0  0  0  0  0  0  0  0
    0.7500    1.2990    0.0000 C   0  0  0  0  0  0  0  0  0  0  0  0
  1  2  1  0
  2  3  1  0
  2  4  1  0
  4  5  2  0
  5  6  1  0
  6  7  2  0
  7  8  1  0
  8  9  1  0
  9 10  2  0
  9 11  1  0
 11 12  1  0
 12 13  2  0
 13 14  1  0
 14 15  2  0
 15 16  1  0
 16 17  2  0
 16 18  1  0
 18 19  1  0
 15 20  1  0
 20 21  2  0
  8 22  1  0
 22 23  1  0
 23 24  1  0
 24 25  1  0
  7 26  1  0
 26 27  2  0
 27  4  1  0
 25  8  1  0
 21 12  1  0
M  END
>  <molecule_chembl_id>  (1010) 
CHEMBL4636734

>  <canonical_smiles>  (1010) 
CN(C)c1ccc(C2(C(=O)Nc3ccc(C(=O)NO)cc3)CCCC2)cc1

>  <pchembl_value_mean>  (1010) 
7.31

>  <document_chembl_id>  (1010) 
CHEMBL4602725

$$$$

     RDKit          2D

 24 26  0  0  0  0  0  0  0  0999 V2000
    3.7500   -1.2990    0.0000 C   0  0  0  0  0  0  0  0  0  0  0  0
    3.0000    0.0000    0.0000 O   0  0  0  0  0  0  0  0  0  0  0  0
    1.5000    0.0000    0.0000 C   0  0  0  0  0  0  0  0  0  0  0  0
    0.7500   -1.2990    0.0000 C   0  0  0  0  0  0  0  0  0  0  0  0
   -0.7500   -1.2990    0.0000 C   0  0  0  0  0  0  0  0  0  0  0  0
   -1.5000    0.0000    0.0000 C   0  0  0  0  0  0  0  0  0  0  0  0
   -3.0000    0.0000    0.0000 C   0  0  0  0  0  0  0  0  0  0  0  0
   -3.2605   -1.4772    0.0000 N   0  0  0  0  0  0  0  0  0  0  0  0
   -4.6700   -1.9902    0.0000 C   0  0  0  0  0  0  0  0  0  0  0  0
   -5.8191   -1.0261    0.0000 N   0  0  0  0  0  0  0  0  0  0  0  0
   -7.2286   -1.5391    0.0000 C   0  0  0  0  0  0  0  0  0  0  0  0
   -7.4891   -3.0163    0.0000 C   0  0  0  0  0  0  0  0  0  0  0  0
   -8.8986   -3.5293    0.0000 C   0  0  0  0  0  0  0  0  0  0  0  0
   -9.1591   -5.0065    0.0000 O   0  0  0  0  0  0  0  0  0  0  0  0
  -10.0477   -2.5652    0.0000 N   0  0  0  0  0  0  0  0  0  0  0  0
  -11.4572   -3.0782    0.0000 O   0  0  0  0  0  0  0  0  0  0  0  0
   -6.3400   -3.9805    0.0000 C   0  0  0  0  0  0  0  0  0  0  0  0
   -4.9305   -3.4675    0.0000 N   0  0  0  0  0  0  0  0  0  0  0  0
   -4.4095    0.5130    0.0000 C   0  0  0  0  0  0  0  0  0  0  0  0
   -3.2605    1.4772    0.0000 C   0  0  0  0  0  0  0  0  0  0  0  0
   -0.7500    1.2990    0.0000 C   0  0  0  0  0  0  0  0  0  0  0  0
    0.7500    1.2990    0.0000 C   0  0  0  0  0  0  0  0  0  0  0  0
    1.5000    2.5981    0.0000 O   0  0  0  0  0  0  0  0  0  0  0  0
    0.7500    3.8971    0.0000 C   0  0  0  0  0  0  0  0  0  0  0  0
  1  2  1  0
  2  3  1  0
  3  4  2  0
  4  5  1  0
  5  6  2  0
  6  7  1  0
  7  8  1  0
  8  9  1  0
  9 10  2  0
 10 11  1  0
 11 12  2  0
 12 13  1  0
 13 14  2  0
 13 15  1  0
 15 16  1  0
 12 17  1  0
 17 18  2  0
  7 19  1  0
 19 20  1  0
  6 21  1  0
 21 22  2  0
 22 23  1  0
 23 24  1  0
 22  3  1  0
 20  7  1  0
 18  9  1  0
M  END
>  <molecule_chembl_id>  (1011) 
CHEMBL3656007

>  <canonical_smiles>  (1011) 
COc1ccc(C2(Nc3ncc(C(=O)NO)cn3)CC2)cc1OC

>  <pchembl_value_mean>  (1011) 
7.31

>  <document_chembl_id>  (1011) 
CHEMBL3639071

$$$$

     RDKit          2D

 41 47  0  0  0  0  0  0  0  0999 V2000
    8.6807  -12.4403    0.0000 C   0  0  0  0  0  0  0  0  0  0  0  0
    9.2182  -11.0399    0.0000 C   0  0  0  0  0  0  0  0  0  0  0  0
    8.2742   -9.8742    0.0000 C   0  0  0  0  0  0  0  0  0  0  0  0
    6.7927  -10.1089    0.0000 O   0  0  0  0  0  0  0  0  0  0  0  0
    8.8118   -8.4738    0.0000 C   0  0  0  0  0  0  0  0  0  0  0  0
    7.8678   -7.3081    0.0000 C   0  0  0  0  0  0  0  0  0  0  0  0
    8.4054   -5.9078    0.0000 C   0  0  0  0  0  0  0  0  0  0  0  0
    7.4614   -4.7420    0.0000 C   0  0  0  0  0  0  0  0  0  0  0  0
    7.9989   -3.3417    0.0000 C   0  0  0  0  0  0  0  0  0  0  0  0
    7.0549   -2.1759    0.0000 C   0  0  0  0  0  0  0  0  0  0  0  0
    5.7559   -2.9259    0.0000 N   0  0  0  0  0  0  0  0  0  0  0  0
    4.2887   -3.2378    0.0000 C   0  0  0  0  0  0  0  0  0  0  0  0
    4.3672   -4.7358    0.0000 O   0  0  0  0  0  0  0  0  0  0  0  0
    2.7969   -3.0810    0.0000 C   0  0  0  0  0  0  0  0  0  0  0  0
    1.3783   -3.5683    0.0000 C   0  0  0  0  0  0  0  0  0  0  0  0
    0.7500   -1.2990    0.0000 C   0  0  0  0  0  0  0  0  0  0  0  0
    1.5000    0.0000    0.0000 C   0  0  0  0  0  0  0  0  0  0  0  0
    0.7500    1.2990    0.0000 C   0  0  0  0  0  0  0  0  0  0  0  0
   -0.7500    1.2990    0.0000 N   0  0  0  0  0  0  0  0  0  0  0  0
   -0.5932    2.7908    0.0000 C   0  0  0  0  0  0  0  0  0  0  0  0
    0.0169    4.1611    0.0000 C   0  0  0  0  0  0  0  0  0  0  0  0
    1.0206    5.2759    0.0000 C   0  0  0  0  0  0  0  0  0  0  0  0
    2.3196    6.0259    0.0000 C   0  0  0  0  0  0  0  0  0  0  0  0
    3.7869    6.3377    0.0000 N   0  0  0  0  0  0  0  0  0  0  0  0
    3.4750    7.8049    0.0000 C   0  0  0  0  0  0  0  0  0  0  0  0
    4.1278    7.4568    0.0000 C   0  0  0  0  0  0  0  0  0  0  0  0
    4.8642    6.7938    0.0000 C   0  0  0  0  0  0  0  0  0  0  0  0
    5.2786    6.1809    0.0000 C   0  0  0  0  0  0  0  0  0  0  0  0
    6.6490    5.5708    0.0000 C   0  0  0  0  0  0  0  0  0  0  0  0
    7.7637    4.5671    0.0000 C   0  0  0  0  0  0  0  0  0  0  0  0
    8.5137    3.2681    0.0000 C   0  0  0  0  0  0  0  0  0  0  0  0
    8.4636    5.7811    0.0000 C   0  0  0  0  0  0  0  0  0  0  0  0
    7.6629    7.0495    0.0000 C   0  0  0  0  0  0  0  0  0  0  0  0
    6.1641    6.9903    0.0000 C   0  0  0  0  0  0  0  0  0  0  0  0
    8.8255    1.8009    0.0000 C   0  0  0  0  0  0  0  0  0  0  0  0
   10.0835    0.9839    0.0000 C   0  0  0  0  0  0  0  0  0  0  0  0
    9.6953   -0.4650    0.0000 N   0  0  0  0  0  0  0  0  0  0  0  0
    8.0586   -1.0612    0.0000 C   0  0  0  0  0  0  0  0  0  0  0  0
    8.6687    0.3091    0.0000 N   0  0  0  0  0  0  0  0  0  0  0  0
   -1.5000    0.0000    0.0000 C   0  0  0  0  0  0  0  0  0  0  0  0
   -0.7500   -1.2990    0.0000 C   0  0  0  0  0  0  0  0  0  0  0  0
  1  2  1  0
  2  3  1  0
  3  4  2  0
  3  5  1  0
  5  6  1  0
  6  7  1  0
  7  8  1  0
  8  9  1  0
  9 10  1  0
 10 11  1  0
 11 12  1  0
 12 13  2  0
 12 14  1  0
 14 15  1  0
 15 16  1  0
 16 17  1  0
 17 18  1  0
 18 19  1  0
 19 20  1  0
 20 21  1  0
 21 22  1  0
 22 23  1  0
 23 24  1  0
 24 25  1  0
 25 26  1  0
 26 27  1  0
 27 28  1  0
 28 29  1  0
 29 30  1  0
 30 31  2  0
 31 32  1  0
 32 33  2  0
 33 34  1  0
 31 35  1  0
 35 36  2  0
 36 37  1  0
 37 38  2  0
 38 39  1  0
 19 40  1  0
 40 41  1  0
 38 10  1  0
 16 14  1  0
 28 24  1  0
 34 29  2  0
 39 35  1  0
 41 16  1  0
 34 25  1  0
M  END
>  <molecule_chembl_id>  (1012) 
CHEMBL4866612

>  <canonical_smiles>  (1012) 
CCC(=O)CCCCCC1NC(=O)C2CC23CCN(CCCCN2C4CCC2c2cc(ccc24)-c2cnc1[nH]2)CC3

>  <pchembl_value_mean>  (1012) 
7.31

>  <document_chembl_id>  (1012) 
CHEMBL4811291

$$$$

     RDKit          2D

 26 27  0  0  0  0  0  0  0  0999 V2000
    3.0000    0.0000    0.0000 O   0  0  0  0  0  0  0  0  0  0  0  0
    1.5000    0.0000    0.0000 C   0  0  0  0  0  0  0  0  0  0  0  0
    0.7500   -1.2990    0.0000 C   0  0  0  0  0  0  0  0  0  0  0  0
   -0.7500   -1.2990    0.0000 C   0  0  0  0  0  0  0  0  0  0  0  0
   -1.5000    0.0000    0.0000 C   0  0  0  0  0  0  0  0  0  0  0  0
   -0.7500    1.2990    0.0000 C   0  0  0  0  0  0  0  0  0  0  0  0
   -1.5000    2.5981    0.0000 C   0  0  0  0  0  0  0  0  0  0  0  0
   -3.0000    2.5981    0.0000 O   0  0  0  0  0  0  0  0  0  0  0  0
   -0.7500    3.8971    0.0000 N   0  0  0  0  0  0  0  0  0  0  0  0
   -1.5000    5.1962    0.0000 C   0  0  0  0  0  0  0  0  0  0  0  0
   -0.7500    6.4952    0.0000 C   0  0  0  0  0  0  0  0  0  0  0  0
   -1.5000    7.7942    0.0000 C   0  0  0  0  0  0  0  0  0  0  0  0
   -0.7500    9.0933    0.0000 C   0  0  0  0  0  0  0  0  0  0  0  0
   -1.5000   10.3923    0.0000 C   0  0  0  0  0  0  0  0  0  0  0  0
   -0.7500   11.6913    0.0000 C   0  0  0  0  0  0  0  0  0  0  0  0
   -1.5000   12.9904    0.0000 S   0  0  0  0  0  0  0  0  0  0  0  0
   -3.0000    5.1962    0.0000 C   0  0  0  0  0  0  0  0  0  0  0  0
   -3.7500    3.8971    0.0000 O   0  0  0  0  0  0  0  0  0  0  0  0
   -3.7500    6.4952    0.0000 N   0  0  0  0  0  0  0  0  0  0  0  0
   -5.2500    6.4952    0.0000 C   0  0  0  0  0  0  0  0  0  0  0  0
   -6.0000    7.7942    0.0000 C   0  0  0  0  0  0  0  0  0  0  0  0
   -7.5000    7.7942    0.0000 C   0  0  0  0  0  0  0  0  0  0  0  0
   -8.2500    6.4952    0.0000 C   0  0  0  0  0  0  0  0  0  0  0  0
   -7.5000    5.1962    0.0000 C   0  0  0  0  0  0  0  0  0  0  0  0
   -6.0000    5.1962    0.0000 C   0  0  0  0  0  0  0  0  0  0  0  0
    0.7500    1.2990    0.0000 N   0  0  0  0  0  0  0  0  0  0  0  0
  1  2  2  0
  2  3  1  0
  3  4  1  0
  4  5  1  0
  5  6  1  0
  6  7  1  0
  7  8  2  0
  7  9  1  0
  9 10  1  0
 10 11  1  0
 11 12  1  0
 12 13  1  0
 13 14  1  0
 14 15  1  0
 15 16  1  0
 10 17  1  0
 17 18  2  0
 17 19  1  0
 19 20  1  0
 20 21  2  0
 21 22  1  0
 22 23  2  0
 23 24  1  0
 24 25  2  0
  6 26  1  0
 26  2  1  0
 25 20  1  0
M  END
>  <molecule_chembl_id>  (1013) 
CHEMBL3356524

>  <canonical_smiles>  (1013) 
O=C1CCCC(C(=O)NC(CCCCCS)C(=O)Nc2ccccc2)N1

>  <pchembl_value_mean>  (1013) 
7.32

>  <document_chembl_id>  (1013) 
CHEMBL3352570

$$$$

     RDKit          2D

 30 32  0  0  0  0  0  0  0  0999 V2000
   12.7500   -3.8971    0.0000 O   0  0  0  0  0  0  0  0  0  0  0  0
   12.0000   -5.1962    0.0000 C   0  0  0  0  0  0  0  0  0  0  0  0
   10.5000   -5.1962    0.0000 C   0  0  0  0  0  0  0  0  0  0  0  0
    9.7500   -3.8971    0.0000 C   0  0  0  0  0  0  0  0  0  0  0  0
    8.2500   -3.8971    0.0000 C   0  0  0  0  0  0  0  0  0  0  0  0
    7.5000   -2.5981    0.0000 C   0  0  0  0  0  0  0  0  0  0  0  0
    6.0000   -2.5981    0.0000 C   0  0  0  0  0  0  0  0  0  0  0  0
    5.2500   -1.2990    0.0000 C   0  0  0  0  0  0  0  0  0  0  0  0
    3.7500   -1.2990    0.0000 C   0  0  0  0  0  0  0  0  0  0  0  0
    3.0000   -2.5981    0.0000 O   0  0  0  0  0  0  0  0  0  0  0  0
    3.0000    0.0000    0.0000 N   0  0  0  0  0  0  0  0  0  0  0  0
    1.5000    0.0000    0.0000 C   0  0  0  0  0  0  0  0  0  0  0  0
    0.7500   -1.2990    0.0000 C   0  0  0  0  0  0  0  0  0  0  0  0
   -0.7500   -1.2990    0.0000 C   0  0  0  0  0  0  0  0  0  0  0  0
   -1.5000    0.0000    0.0000 C   0  0  0  0  0  0  0  0  0  0  0  0
   -0.7500    1.2990    0.0000 C   0  0  0  0  0  0  0  0  0  0  0  0
   -1.5000    2.5981    0.0000 N   0  0  0  0  0  0  0  0  0  0  0  0
   -2.9918    2.7549    0.0000 C   0  0  0  0  0  0  0  0  0  0  0  0
   -3.3037    4.2221    0.0000 C   0  0  0  0  0  0  0  0  0  0  0  0
   -4.6740    4.8322    0.0000 C   0  0  0  0  0  0  0  0  0  0  0  0
   -4.8308    6.3240    0.0000 C   0  0  0  0  0  0  0  0  0  0  0  0
   -6.2011    6.9341    0.0000 C   0  0  0  0  0  0  0  0  0  0  0  0
   -7.4146    6.0524    0.0000 C   0  0  0  0  0  0  0  0  0  0  0  0
   -7.2578    4.5606    0.0000 C   0  0  0  0  0  0  0  0  0  0  0  0
   -5.8875    3.9505    0.0000 C   0  0  0  0  0  0  0  0  0  0  0  0
   -2.0046    4.9721    0.0000 N   0  0  0  0  0  0  0  0  0  0  0  0
   -0.8899    3.9684    0.0000 N   0  0  0  0  0  0  0  0  0  0  0  0
    0.7500    1.2990    0.0000 C   0  0  0  0  0  0  0  0  0  0  0  0
   12.7500   -6.4952    0.0000 N   0  0  0  0  0  0  0  0  0  0  0  0
   14.2500   -6.4952    0.0000 O   0  0  0  0  0  0  0  0  0  0  0  0
  1  2  2  0
  2  3  1  0
  3  4  1  0
  4  5  1  0
  5  6  1  0
  6  7  1  0
  7  8  1  0
  8  9  1  0
  9 10  2  0
  9 11  1  0
 11 12  1  0
 12 13  2  0
 13 14  1  0
 14 15  2  0
 15 16  1  0
 16 17  1  0
 17 18  1  0
 18 19  2  0
 19 20  1  0
 20 21  1  0
 21 22  1  0
 22 23  1  0
 23 24  1  0
 24 25  1  0
 19 26  1  0
 26 27  2  0
 16 28  2  0
  2 29  1  0
 29 30  1  0
 28 12  1  0
 27 17  1  0
 25 20  1  0
M  END
>  <molecule_chembl_id>  (1014) 
CHEMBL1094710

>  <canonical_smiles>  (1014) 
O=C(CCCCCCC(=O)Nc1cccc(-n2cc(C3CCCCC3)nn2)c1)NO

>  <pchembl_value_mean>  (1014) 
7.32

>  <document_chembl_id>  (1014) 
CHEMBL1154884

$$$$

     RDKit          2D

 30 32  0  0  0  0  0  0  0  0999 V2000
   12.7500   -3.8971    0.0000 O   0  0  0  0  0  0  0  0  0  0  0  0
   12.0000   -5.1962    0.0000 C   0  0  0  0  0  0  0  0  0  0  0  0
   10.5000   -5.1962    0.0000 C   0  0  0  0  0  0  0  0  0  0  0  0
    9.7500   -3.8971    0.0000 C   0  0  0  0  0  0  0  0  0  0  0  0
    8.2500   -3.8971    0.0000 C   0  0  0  0  0  0  0  0  0  0  0  0
    7.5000   -2.5981    0.0000 C   0  0  0  0  0  0  0  0  0  0  0  0
    6.0000   -2.5981    0.0000 C   0  0  0  0  0  0  0  0  0  0  0  0
    5.2500   -1.2990    0.0000 C   0  0  0  0  0  0  0  0  0  0  0  0
    3.7500   -1.2990    0.0000 C   0  0  0  0  0  0  0  0  0  0  0  0
    3.0000   -2.5981    0.0000 O   0  0  0  0  0  0  0  0  0  0  0  0
    3.0000    0.0000    0.0000 N   0  0  0  0  0  0  0  0  0  0  0  0
    1.5000    0.0000    0.0000 C   0  0  0  0  0  0  0  0  0  0  0  0
    0.7500   -1.2990    0.0000 C   0  0  0  0  0  0  0  0  0  0  0  0
   -0.7500   -1.2990    0.0000 C   0  0  0  0  0  0  0  0  0  0  0  0
   -1.5000    0.0000    0.0000 C   0  0  0  0  0  0  0  0  0  0  0  0
   -3.0000    0.0000    0.0000 C   0  0  0  0  0  0  0  0  0  0  0  0
   -3.8817   -1.2135    0.0000 C   0  0  0  0  0  0  0  0  0  0  0  0
   -5.3083   -0.7500    0.0000 N   0  0  0  0  0  0  0  0  0  0  0  0
   -6.5218   -1.6317    0.0000 C   0  0  0  0  0  0  0  0  0  0  0  0
   -7.8921   -1.0216    0.0000 C   0  0  0  0  0  0  0  0  0  0  0  0
   -9.1056   -1.9033    0.0000 C   0  0  0  0  0  0  0  0  0  0  0  0
   -8.9488   -3.3950    0.0000 C   0  0  0  0  0  0  0  0  0  0  0  0
   -7.5785   -4.0051    0.0000 C   0  0  0  0  0  0  0  0  0  0  0  0
   -6.3650   -3.1235    0.0000 C   0  0  0  0  0  0  0  0  0  0  0  0
   -5.3083    0.7500    0.0000 N   0  0  0  0  0  0  0  0  0  0  0  0
   -3.8817    1.2135    0.0000 N   0  0  0  0  0  0  0  0  0  0  0  0
   -0.7500    1.2990    0.0000 C   0  0  0  0  0  0  0  0  0  0  0  0
    0.7500    1.2990    0.0000 C   0  0  0  0  0  0  0  0  0  0  0  0
   12.7500   -6.4952    0.0000 N   0  0  0  0  0  0  0  0  0  0  0  0
   14.2500   -6.4952    0.0000 O   0  0  0  0  0  0  0  0  0  0  0  0
  1  2  2  0
  2  3  1  0
  3  4  1  0
  4  5  1  0
  5  6  1  0
  6  7  1  0
  7  8  1  0
  8  9  1  0
  9 10  2  0
  9 11  1  0
 11 12  1  0
 12 13  2  0
 13 14  1  0
 14 15  2  0
 15 16  1  0
 16 17  2  0
 17 18  1  0
 18 19  1  0
 19 20  2  0
 20 21  1  0
 21 22  2  0
 22 23  1  0
 23 24  2  0
 18 25  1  0
 25 26  2  0
 15 27  1  0
 27 28  2  0
  2 29  1  0
 29 30  1  0
 28 12  1  0
 26 16  1  0
 24 19  1  0
M  END
>  <molecule_chembl_id>  (1015) 
CHEMBL519491

>  <canonical_smiles>  (1015) 
O=C(CCCCCCC(=O)Nc1ccc(-c2cn(-c3ccccc3)nn2)cc1)NO

>  <pchembl_value_mean>  (1015) 
7.32

>  <document_chembl_id>  (1015) 
CHEMBL1150413

$$$$

     RDKit          2D

 42 46  0  0  0  0  0  0  0  0999 V2000
    7.2317   -6.0469    0.0000 O   0  0  0  0  0  0  0  0  0  0  0  0
    6.9199   -4.5797    0.0000 C   0  0  0  0  0  0  0  0  0  0  0  0
    5.4933   -4.1162    0.0000 N   0  0  0  0  0  0  0  0  0  0  0  0
    4.3786   -5.1199    0.0000 C   0  0  0  0  0  0  0  0  0  0  0  0
    4.6904   -6.5871    0.0000 C   0  0  0  0  0  0  0  0  0  0  0  0
    6.1170   -7.0506    0.0000 C   0  0  0  0  0  0  0  0  0  0  0  0
    6.4289   -8.5179    0.0000 C   0  0  0  0  0  0  0  0  0  0  0  0
    7.8555   -8.9814    0.0000 C   0  0  0  0  0  0  0  0  0  0  0  0
    8.1673  -10.4486    0.0000 C   0  0  0  0  0  0  0  0  0  0  0  0
    9.5939  -10.9121    0.0000 C   0  0  0  0  0  0  0  0  0  0  0  0
    9.9058  -12.3794    0.0000 S   0  0  0  0  0  0  0  0  0  0  0  0
   11.3324  -12.8429    0.0000 S   0  0  0  0  0  0  0  0  0  0  0  0
   11.6442  -14.3101    0.0000 C   0  0  0  0  0  0  0  0  0  0  0  0
   10.5295  -15.3138    0.0000 C   0  0  0  0  0  0  0  0  0  0  0  0
   10.8414  -16.7810    0.0000 C   0  0  0  0  0  0  0  0  0  0  0  0
   12.2680  -17.2445    0.0000 C   0  0  0  0  0  0  0  0  0  0  0  0
   13.3827  -16.2409    0.0000 C   0  0  0  0  0  0  0  0  0  0  0  0
   13.0708  -14.7736    0.0000 N   0  0  0  0  0  0  0  0  0  0  0  0
    2.9520   -4.6564    0.0000 C   0  0  0  0  0  0  0  0  0  0  0  0
    1.8373   -5.6601    0.0000 O   0  0  0  0  0  0  0  0  0  0  0  0
    2.6401   -3.1891    0.0000 N   0  0  0  0  0  0  0  0  0  0  0  0
    1.2135   -2.7256    0.0000 C   0  0  0  0  0  0  0  0  0  0  0  0
    0.7500   -1.2990    0.0000 C   0  0  0  0  0  0  0  0  0  0  0  0
    1.5000    0.0000    0.0000 C   0  0  0  0  0  0  0  0  0  0  0  0
    0.7500    1.2990    0.0000 C   0  0  0  0  0  0  0  0  0  0  0  0
   -0.7500    1.2990    0.0000 C   0  0  0  0  0  0  0  0  0  0  0  0
   -1.5000    0.0000    0.0000 C   0  0  0  0  0  0  0  0  0  0  0  0
   -0.7500   -1.2990    0.0000 C   0  0  0  0  0  0  0  0  0  0  0  0
   -1.2135   -2.7256    0.0000 C   0  0  0  0  0  0  0  0  0  0  0  0
   -2.5838   -3.3357    0.0000 C   0  0  0  0  0  0  0  0  0  0  0  0
   -2.7406   -4.8275    0.0000 C   0  0  0  0  0  0  0  0  0  0  0  0
   -1.5271   -5.7092    0.0000 C   0  0  0  0  0  0  0  0  0  0  0  0
   -0.1568   -5.0991    0.0000 C   0  0  0  0  0  0  0  0  0  0  0  0
   -0.0000   -3.6073    0.0000 C   0  0  0  0  0  0  0  0  0  0  0  0
    8.0346   -3.5760    0.0000 O   0  0  0  0  0  0  0  0  0  0  0  0
    9.4612   -4.0396    0.0000 C   0  0  0  0  0  0  0  0  0  0  0  0
   10.5759   -3.0359    0.0000 C   0  0  0  0  0  0  0  0  0  0  0  0
   12.0025   -3.4994    0.0000 C   0  0  0  0  0  0  0  0  0  0  0  0
   13.1172   -2.4957    0.0000 C   0  0  0  0  0  0  0  0  0  0  0  0
   12.8053   -1.0285    0.0000 C   0  0  0  0  0  0  0  0  0  0  0  0
   11.3787   -0.5649    0.0000 C   0  0  0  0  0  0  0  0  0  0  0  0
   10.2640   -1.5686    0.0000 C   0  0  0  0  0  0  0  0  0  0  0  0
  1  2  2  0
  2  3  1  0
  3  4  1  0
  4  5  1  0
  5  6  1  0
  6  7  1  0
  7  8  1  0
  8  9  1  0
  9 10  1  0
 10 11  1  0
 11 12  1  0
 12 13  1  0
 13 14  2  0
 14 15  1  0
 15 16  2  0
 16 17  1  0
 17 18  2  0
  4 19  1  0
 19 20  2  0
 19 21  1  0
 21 22  1  0
 22 23  1  0
 23 24  2  0
 24 25  1  0
 25 26  2  0
 26 27  1  0
 27 28  2  0
 28 29  1  0
 29 30  2  0
 30 31  1  0
 31 32  2  0
 32 33  1  0
 33 34  2  0
  2 35  1  0
 35 36  1  0
 36 37  1  0
 37 38  2  0
 38 39  1  0
 39 40  2  0
 40 41  1  0
 41 42  2  0
 18 13  1  0
 34 22  1  0
 42 37  1  0
 28 23  1  0
 34 29  1  0
M  END
>  <molecule_chembl_id>  (1016) 
CHEMBL2022828

>  <canonical_smiles>  (1016) 
O=C(NC(CCCCCCSSc1ccccn1)C(=O)NC1c2ccccc2-c2ccccc21)OCc1ccccc1

>  <pchembl_value_mean>  (1016) 
7.32

>  <document_chembl_id>  (1016) 
CHEMBL2021837

$$$$

     RDKit          2D

 41 44  0  0  0  0  0  0  0  0999 V2000
    3.0000  -15.5885    0.0000 O   0  0  0  0  0  0  0  0  0  0  0  0
    3.7500  -14.2894    0.0000 C   0  0  0  0  0  0  0  0  0  0  0  0
    3.0000  -12.9904    0.0000 N   0  0  0  0  0  0  0  0  0  0  0  0
    1.5000  -12.9904    0.0000 C   0  0  0  0  0  0  0  0  0  0  0  0
    0.7500  -11.6913    0.0000 C   0  0  0  0  0  0  0  0  0  0  0  0
    1.5000  -10.3923    0.0000 C   0  0  0  0  0  0  0  0  0  0  0  0
    0.7500   -9.0933    0.0000 C   0  0  0  0  0  0  0  0  0  0  0  0
    1.5000   -7.7942    0.0000 C   0  0  0  0  0  0  0  0  0  0  0  0
    0.7500   -6.4952    0.0000 C   0  0  0  0  0  0  0  0  0  0  0  0
    1.5000   -5.1962    0.0000 C   0  0  0  0  0  0  0  0  0  0  0  0
    0.7500   -3.8971    0.0000 S   0  0  0  0  0  0  0  0  0  0  0  0
    1.5000   -2.5981    0.0000 S   0  0  0  0  0  0  0  0  0  0  0  0
    0.7500   -1.2990    0.0000 C   0  0  0  0  0  0  0  0  0  0  0  0
    1.5000    0.0000    0.0000 C   0  0  0  0  0  0  0  0  0  0  0  0
    0.7500    1.2990    0.0000 C   0  0  0  0  0  0  0  0  0  0  0  0
   -0.7500    1.2990    0.0000 C   0  0  0  0  0  0  0  0  0  0  0  0
   -1.5000    0.0000    0.0000 C   0  0  0  0  0  0  0  0  0  0  0  0
   -0.7500   -1.2990    0.0000 N   0  0  0  0  0  0  0  0  0  0  0  0
    0.7500  -14.2894    0.0000 C   0  0  0  0  0  0  0  0  0  0  0  0
   -0.7500  -14.2894    0.0000 O   0  0  0  0  0  0  0  0  0  0  0  0
    1.5000  -15.5885    0.0000 N   0  0  0  0  0  0  0  0  0  0  0  0
    0.7500  -16.8875    0.0000 C   0  0  0  0  0  0  0  0  0  0  0  0
   -0.7500  -16.8875    0.0000 C   0  0  0  0  0  0  0  0  0  0  0  0
   -1.5000  -18.1865    0.0000 C   0  0  0  0  0  0  0  0  0  0  0  0
   -0.7500  -19.4856    0.0000 C   0  0  0  0  0  0  0  0  0  0  0  0
   -1.5000  -20.7846    0.0000 C   0  0  0  0  0  0  0  0  0  0  0  0
   -3.0000  -20.7846    0.0000 C   0  0  0  0  0  0  0  0  0  0  0  0
   -3.7500  -22.0836    0.0000 C   0  0  0  0  0  0  0  0  0  0  0  0
   -3.0000  -23.3827    0.0000 C   0  0  0  0  0  0  0  0  0  0  0  0
   -1.5000  -23.3827    0.0000 C   0  0  0  0  0  0  0  0  0  0  0  0
   -0.7500  -22.0836    0.0000 C   0  0  0  0  0  0  0  0  0  0  0  0
    0.7500  -19.4856    0.0000 C   0  0  0  0  0  0  0  0  0  0  0  0
    1.5000  -18.1865    0.0000 C   0  0  0  0  0  0  0  0  0  0  0  0
    5.2500  -14.2894    0.0000 O   0  0  0  0  0  0  0  0  0  0  0  0
    6.0000  -15.5885    0.0000 C   0  0  0  0  0  0  0  0  0  0  0  0
    7.5000  -15.5885    0.0000 C   0  0  0  0  0  0  0  0  0  0  0  0
    8.2500  -16.8875    0.0000 C   0  0  0  0  0  0  0  0  0  0  0  0
    9.7500  -16.8875    0.0000 C   0  0  0  0  0  0  0  0  0  0  0  0
   10.5000  -15.5885    0.0000 C   0  0  0  0  0  0  0  0  0  0  0  0
    9.7500  -14.2894    0.0000 C   0  0  0  0  0  0  0  0  0  0  0  0
    8.2500  -14.2894    0.0000 C   0  0  0  0  0  0  0  0  0  0  0  0
  1  2  2  0
  2  3  1  0
  3  4  1  0
  4  5  1  0
  5  6  1  0
  6  7  1  0
  7  8  1  0
  8  9  1  0
  9 10  1  0
 10 11  1  0
 11 12  1  0
 12 13  1  0
 13 14  2  0
 14 15  1  0
 15 16  2  0
 16 17  1  0
 17 18  2  0
  4 19  1  0
 19 20  2  0
 19 21  1  0
 21 22  1  0
 22 23  2  0
 23 24  1  0
 24 25  2  0
 25 26  1  0
 26 27  2  0
 27 28  1  0
 28 29  2  0
 29 30  1  0
 30 31  2  0
 25 32  1  0
 32 33  2  0
  2 34  1  0
 34 35  1  0
 35 36  1  0
 36 37  2  0
 37 38  1  0
 38 39  2  0
 39 40  1  0
 40 41  2  0
 18 13  1  0
 33 22  1  0
 41 36  1  0
 31 26  1  0
M  END
>  <molecule_chembl_id>  (1017) 
CHEMBL2022827

>  <canonical_smiles>  (1017) 
O=C(NC(CCCCCCSSc1ccccn1)C(=O)Nc1ccc(-c2ccccc2)cc1)OCc1ccccc1

>  <pchembl_value_mean>  (1017) 
7.33

>  <document_chembl_id>  (1017) 
CHEMBL2021837

$$$$

     RDKit          2D

 27 29  0  0  0  0  0  0  0  0999 V2000
    3.0000    0.0000    0.0000 C   0  0  0  0  0  0  0  0  0  0  0  0
    1.5000    0.0000    0.0000 C   0  0  0  0  0  0  0  0  0  0  0  0
    0.7500   -1.2990    0.0000 C   0  0  0  0  0  0  0  0  0  0  0  0
   -0.7500   -1.2990    0.0000 C   0  0  0  0  0  0  0  0  0  0  0  0
   -1.5000    0.0000    0.0000 C   0  0  0  0  0  0  0  0  0  0  0  0
   -3.0000    0.0000    0.0000 C   0  0  0  0  0  0  0  0  0  0  0  0
   -3.8817   -1.2135    0.0000 C   0  0  0  0  0  0  0  0  0  0  0  0
   -5.3083   -0.7500    0.0000 C   0  0  0  0  0  0  0  0  0  0  0  0
   -6.5218   -1.6317    0.0000 C   0  0  0  0  0  0  0  0  0  0  0  0
   -7.7353   -2.5134    0.0000 F   0  0  0  0  0  0  0  0  0  0  0  0
   -7.4035   -0.4182    0.0000 F   0  0  0  0  0  0  0  0  0  0  0  0
   -5.6401   -2.8452    0.0000 F   0  0  0  0  0  0  0  0  0  0  0  0
   -5.3083    0.7500    0.0000 N   0  0  0  0  0  0  0  0  0  0  0  0
   -6.5218    1.6317    0.0000 C   0  0  0  0  0  0  0  0  0  0  0  0
   -6.3650    3.1235    0.0000 C   0  0  0  0  0  0  0  0  0  0  0  0
   -4.9947    3.7336    0.0000 C   0  0  0  0  0  0  0  0  0  0  0  0
   -4.8379    5.2253    0.0000 C   0  0  0  0  0  0  0  0  0  0  0  0
   -6.0514    6.1070    0.0000 C   0  0  0  0  0  0  0  0  0  0  0  0
   -5.8946    7.5988    0.0000 C   0  0  0  0  0  0  0  0  0  0  0  0
   -7.1081    8.4805    0.0000 O   0  0  0  0  0  0  0  0  0  0  0  0
   -4.5243    8.2089    0.0000 N   0  0  0  0  0  0  0  0  0  0  0  0
   -4.3675    9.7007    0.0000 O   0  0  0  0  0  0  0  0  0  0  0  0
   -7.4217    5.4969    0.0000 C   0  0  0  0  0  0  0  0  0  0  0  0
   -7.5785    4.0051    0.0000 C   0  0  0  0  0  0  0  0  0  0  0  0
   -3.8817    1.2135    0.0000 N   0  0  0  0  0  0  0  0  0  0  0  0
   -0.7500    1.2990    0.0000 C   0  0  0  0  0  0  0  0  0  0  0  0
    0.7500    1.2990    0.0000 C   0  0  0  0  0  0  0  0  0  0  0  0
  1  2  1  0
  2  3  2  0
  3  4  1  0
  4  5  2  0
  5  6  1  0
  6  7  1  0
  7  8  2  0
  8  9  1  0
  9 10  1  0
  9 11  1  0
  9 12  1  0
  8 13  1  0
 13 14  1  0
 14 15  1  0
 15 16  2  0
 16 17  1  0
 17 18  2  0
 18 19  1  0
 19 20  2  0
 19 21  1  0
 21 22  1  0
 18 23  1  0
 23 24  2  0
 13 25  1  0
  5 26  1  0
 26 27  2  0
 27  2  1  0
 25  6  2  0
 24 15  1  0
M  END
>  <molecule_chembl_id>  (1018) 
CHEMBL4225331

>  <canonical_smiles>  (1018) 
Cc1ccc(-c2cc(C(F)(F)F)n(Cc3ccc(C(=O)NO)cc3)n2)cc1

>  <pchembl_value_mean>  (1018) 
7.33

>  <document_chembl_id>  (1018) 
CHEMBL4219109

$$$$

     RDKit          2D

 25 27  0  0  0  0  0  0  0  0999 V2000
   -7.9106   -1.1931    0.0000 C   0  0  0  0  0  0  0  0  0  0  0  0
   -6.4188   -1.3499    0.0000 C   0  0  0  0  0  0  0  0  0  0  0  0
   -5.8087   -2.7203    0.0000 C   0  0  0  0  0  0  0  0  0  0  0  0
   -6.6904   -3.9338    0.0000 C   0  0  0  0  0  0  0  0  0  0  0  0
   -6.0803   -5.3041    0.0000 C   0  0  0  0  0  0  0  0  0  0  0  0
   -6.9619   -6.5176    0.0000 C   0  0  0  0  0  0  0  0  0  0  0  0
   -6.3518   -7.8879    0.0000 C   0  0  0  0  0  0  0  0  0  0  0  0
   -7.2335   -9.1015    0.0000 C   0  0  0  0  0  0  0  0  0  0  0  0
   -8.7253   -8.9447    0.0000 O   0  0  0  0  0  0  0  0  0  0  0  0
   -6.6234  -10.4718    0.0000 N   0  0  0  0  0  0  0  0  0  0  0  0
   -7.5051  -11.6853    0.0000 O   0  0  0  0  0  0  0  0  0  0  0  0
   -5.5371   -0.1364    0.0000 N   0  0  0  0  0  0  0  0  0  0  0  0
   -4.0371   -0.1364    0.0000 C   0  0  0  0  0  0  0  0  0  0  0  0
   -3.5736    1.2902    0.0000 C   0  0  0  0  0  0  0  0  0  0  0  0
   -2.1470    1.7537    0.0000 C   0  0  0  0  0  0  0  0  0  0  0  0
   -1.8351    3.2209    0.0000 N   0  0  0  0  0  0  0  0  0  0  0  0
   -0.4086    3.6844    0.0000 C   0  0  0  0  0  0  0  0  0  0  0  0
    0.7062    2.6807    0.0000 N   0  0  0  0  0  0  0  0  0  0  0  0
    0.3943    1.2135    0.0000 C   0  0  0  0  0  0  0  0  0  0  0  0
    1.2760    0.0000    0.0000 N   0  0  0  0  0  0  0  0  0  0  0  0
    0.3943   -1.2135    0.0000 C   0  0  0  0  0  0  0  0  0  0  0  0
   -1.0323   -0.7500    0.0000 C   0  0  0  0  0  0  0  0  0  0  0  0
   -1.0323    0.7500    0.0000 C   0  0  0  0  0  0  0  0  0  0  0  0
   -4.7871    2.1718    0.0000 C   0  0  0  0  0  0  0  0  0  0  0  0
   -6.0006    1.2902    0.0000 N   0  0  0  0  0  0  0  0  0  0  0  0
  1  2  1  0
  2  3  1  0
  3  4  1  0
  4  5  1  0
  5  6  1  0
  6  7  1  0
  7  8  1  0
  8  9  2  0
  8 10  1  0
 10 11  1  0
  2 12  1  0
 12 13  1  0
 13 14  2  0
 14 15  1  0
 15 16  2  0
 16 17  1  0
 17 18  2  0
 18 19  1  0
 19 20  1  0
 20 21  1  0
 21 22  2  0
 22 23  1  0
 14 24  1  0
 24 25  2  0
 25 12  1  0
 23 15  1  0
 23 19  2  0
M  END
>  <molecule_chembl_id>  (1019) 
CHEMBL4095596

>  <canonical_smiles>  (1019) 
CC(CCCCCC(=O)NO)n1cc(-c2ncnc3[nH]ccc23)cn1

>  <pchembl_value_mean>  (1019) 
7.33

>  <document_chembl_id>  (1019) 
CHEMBL4028864

$$$$

     RDKit          2D

 41 44  0  0  0  0  0  0  0  0999 V2000
    3.0000  -15.5885    0.0000 O   0  0  0  0  0  0  0  0  0  0  0  0
    3.7500  -14.2894    0.0000 C   0  0  0  0  0  0  0  0  0  0  0  0
    3.0000  -12.9904    0.0000 N   0  0  0  0  0  0  0  0  0  0  0  0
    1.5000  -12.9904    0.0000 C   0  0  0  0  0  0  0  0  0  0  0  0
    0.7500  -11.6913    0.0000 C   0  0  0  0  0  0  0  0  0  0  0  0
    1.5000  -10.3923    0.0000 C   0  0  0  0  0  0  0  0  0  0  0  0
    0.7500   -9.0933    0.0000 C   0  0  0  0  0  0  0  0  0  0  0  0
    1.5000   -7.7942    0.0000 C   0  0  0  0  0  0  0  0  0  0  0  0
    0.7500   -6.4952    0.0000 C   0  0  0  0  0  0  0  0  0  0  0  0
    1.5000   -5.1962    0.0000 C   0  0  0  0  0  0  0  0  0  0  0  0
    0.7500   -3.8971    0.0000 S   0  0  0  0  0  0  0  0  0  0  0  0
    1.5000   -2.5981    0.0000 S   0  0  0  0  0  0  0  0  0  0  0  0
    0.7500   -1.2990    0.0000 C   0  0  0  0  0  0  0  0  0  0  0  0
    1.5000    0.0000    0.0000 C   0  0  0  0  0  0  0  0  0  0  0  0
    0.7500    1.2990    0.0000 C   0  0  0  0  0  0  0  0  0  0  0  0
   -0.7500    1.2990    0.0000 C   0  0  0  0  0  0  0  0  0  0  0  0
   -1.5000    0.0000    0.0000 C   0  0  0  0  0  0  0  0  0  0  0  0
   -0.7500   -1.2990    0.0000 N   0  0  0  0  0  0  0  0  0  0  0  0
    0.7500  -14.2894    0.0000 C   0  0  0  0  0  0  0  0  0  0  0  0
   -0.7500  -14.2894    0.0000 O   0  0  0  0  0  0  0  0  0  0  0  0
    1.5000  -15.5885    0.0000 N   0  0  0  0  0  0  0  0  0  0  0  0
    0.7500  -16.8875    0.0000 C   0  0  0  0  0  0  0  0  0  0  0  0
   -0.7500  -16.8875    0.0000 C   0  0  0  0  0  0  0  0  0  0  0  0
   -1.5000  -18.1865    0.0000 C   0  0  0  0  0  0  0  0  0  0  0  0
   -0.7500  -19.4856    0.0000 C   0  0  0  0  0  0  0  0  0  0  0  0
    0.7500  -19.4856    0.0000 C   0  0  0  0  0  0  0  0  0  0  0  0
    1.5000  -18.1865    0.0000 C   0  0  0  0  0  0  0  0  0  0  0  0
    3.0000  -18.1865    0.0000 C   0  0  0  0  0  0  0  0  0  0  0  0
    3.7500  -19.4856    0.0000 C   0  0  0  0  0  0  0  0  0  0  0  0
    5.2500  -19.4856    0.0000 C   0  0  0  0  0  0  0  0  0  0  0  0
    6.0000  -18.1865    0.0000 C   0  0  0  0  0  0  0  0  0  0  0  0
    5.2500  -16.8875    0.0000 C   0  0  0  0  0  0  0  0  0  0  0  0
    3.7500  -16.8875    0.0000 C   0  0  0  0  0  0  0  0  0  0  0  0
    5.2500  -14.2894    0.0000 O   0  0  0  0  0  0  0  0  0  0  0  0
    6.0000  -15.5885    0.0000 C   0  0  0  0  0  0  0  0  0  0  0  0
    7.5000  -15.5885    0.0000 C   0  0  0  0  0  0  0  0  0  0  0  0
    8.2500  -16.8875    0.0000 C   0  0  0  0  0  0  0  0  0  0  0  0
    9.7500  -16.8875    0.0000 C   0  0  0  0  0  0  0  0  0  0  0  0
   10.5000  -15.5885    0.0000 C   0  0  0  0  0  0  0  0  0  0  0  0
    9.7500  -14.2894    0.0000 C   0  0  0  0  0  0  0  0  0  0  0  0
    8.2500  -14.2894    0.0000 C   0  0  0  0  0  0  0  0  0  0  0  0
  1  2  2  0
  2  3  1  0
  3  4  1  0
  4  5  1  0
  5  6  1  0
  6  7  1  0
  7  8  1  0
  8  9  1  0
  9 10  1  0
 10 11  1  0
 11 12  1  0
 12 13  1  0
 13 14  2  0
 14 15  1  0
 15 16  2  0
 16 17  1  0
 17 18  2  0
  4 19  1  0
 19 20  2  0
 19 21  1  0
 21 22  1  0
 22 23  2  0
 23 24  1  0
 24 25  2  0
 25 26  1  0
 26 27  2  0
 27 28  1  0
 28 29  2  0
 29 30  1  0
 30 31  2  0
 31 32  1  0
 32 33  2  0
  2 34  1  0
 34 35  1  0
 35 36  1  0
 36 37  2  0
 37 38  1  0
 38 39  2  0
 39 40  1  0
 40 41  2  0
 18 13  1  0
 27 22  1  0
 33 28  1  0
 41 36  1  0
M  END
>  <molecule_chembl_id>  (1020) 
CHEMBL2022826

>  <canonical_smiles>  (1020) 
O=C(NC(CCCCCCSSc1ccccn1)C(=O)Nc1ccccc1-c1ccccc1)OCc1ccccc1

>  <pchembl_value_mean>  (1020) 
7.34

>  <document_chembl_id>  (1020) 
CHEMBL2021837

$$$$

     RDKit          2D

 26 28  0  0  0  0  0  0  0  0999 V2000
    5.1962  -17.1073    0.0000 O   0  0  0  0  0  0  0  0  0  0  0  0
    6.4952  -16.3573    0.0000 C   0  0  0  0  0  0  0  0  0  0  0  0
    6.4952  -14.8573    0.0000 C   0  0  0  0  0  0  0  0  0  0  0  0
    5.1962  -14.1073    0.0000 C   0  0  0  0  0  0  0  0  0  0  0  0
    5.1962  -12.6073    0.0000 C   0  0  0  0  0  0  0  0  0  0  0  0
    3.8971  -11.8573    0.0000 C   0  0  0  0  0  0  0  0  0  0  0  0
    3.8971  -10.3573    0.0000 C   0  0  0  0  0  0  0  0  0  0  0  0
    2.5981   -9.6073    0.0000 C   0  0  0  0  0  0  0  0  0  0  0  0
    2.5981   -8.1073    0.0000 O   0  0  0  0  0  0  0  0  0  0  0  0
    1.2990   -7.3573    0.0000 C   0  0  0  0  0  0  0  0  0  0  0  0
   -0.0000   -8.1073    0.0000 C   0  0  0  0  0  0  0  0  0  0  0  0
   -1.2990   -7.3573    0.0000 C   0  0  0  0  0  0  0  0  0  0  0  0
   -1.2990   -5.8573    0.0000 C   0  0  0  0  0  0  0  0  0  0  0  0
   -0.0000   -5.1073    0.0000 C   0  0  0  0  0  0  0  0  0  0  0  0
   -0.0000   -3.6073    0.0000 C   0  0  0  0  0  0  0  0  0  0  0  0
    1.2135   -2.7256    0.0000 N   0  0  0  0  0  0  0  0  0  0  0  0
    0.7500   -1.2990    0.0000 C   0  0  0  0  0  0  0  0  0  0  0  0
    1.5000    0.0000    0.0000 C   0  0  0  0  0  0  0  0  0  0  0  0
    0.7500    1.2990    0.0000 C   0  0  0  0  0  0  0  0  0  0  0  0
   -0.7500    1.2990    0.0000 C   0  0  0  0  0  0  0  0  0  0  0  0
   -1.5000    0.0000    0.0000 C   0  0  0  0  0  0  0  0  0  0  0  0
   -0.7500   -1.2990    0.0000 C   0  0  0  0  0  0  0  0  0  0  0  0
   -1.2135   -2.7256    0.0000 N   0  0  0  0  0  0  0  0  0  0  0  0
    1.2990   -5.8573    0.0000 C   0  0  0  0  0  0  0  0  0  0  0  0
    7.7942  -17.1073    0.0000 N   0  0  0  0  0  0  0  0  0  0  0  0
    7.7942  -18.6073    0.0000 O   0  0  0  0  0  0  0  0  0  0  0  0
  1  2  2  0
  2  3  1  0
  3  4  1  0
  4  5  1  0
  5  6  1  0
  6  7  1  0
  7  8  1  0
  8  9  1  0
  9 10  1  0
 10 11  2  0
 11 12  1  0
 12 13  2  0
 13 14  1  0
 14 15  1  0
 15 16  2  0
 16 17  1  0
 17 18  2  0
 18 19  1  0
 19 20  2  0
 20 21  1  0
 21 22  2  0
 22 23  1  0
 14 24  2  0
  2 25  1  0
 25 26  1  0
 24 10  1  0
 23 15  1  0
 22 17  1  0
M  END
>  <molecule_chembl_id>  (1021) 
CHEMBL5086208

>  <canonical_smiles>  (1021) 
O=C(CCCCCCOc1cccc(-c2nc3ccccc3[nH]2)c1)NO

>  <pchembl_value_mean>  (1021) 
7.34

>  <document_chembl_id>  (1021) 
CHEMBL5038666

$$$$

     RDKit          2D

 39 41  0  0  0  0  0  0  0  0999 V2000
    3.0000  -15.5885    0.0000 O   0  0  0  0  0  0  0  0  0  0  0  0
    3.7500  -14.2894    0.0000 C   0  0  0  0  0  0  0  0  0  0  0  0
    3.0000  -12.9904    0.0000 N   0  0  0  0  0  0  0  0  0  0  0  0
    1.5000  -12.9904    0.0000 C   0  0  0  0  0  0  0  0  0  0  0  0
    0.7500  -11.6913    0.0000 C   0  0  0  0  0  0  0  0  0  0  0  0
    1.5000  -10.3923    0.0000 C   0  0  0  0  0  0  0  0  0  0  0  0
    0.7500   -9.0933    0.0000 C   0  0  0  0  0  0  0  0  0  0  0  0
    1.5000   -7.7942    0.0000 C   0  0  0  0  0  0  0  0  0  0  0  0
    0.7500   -6.4952    0.0000 C   0  0  0  0  0  0  0  0  0  0  0  0
    1.5000   -5.1962    0.0000 C   0  0  0  0  0  0  0  0  0  0  0  0
    0.7500   -3.8971    0.0000 S   0  0  0  0  0  0  0  0  0  0  0  0
    1.5000   -2.5981    0.0000 S   0  0  0  0  0  0  0  0  0  0  0  0
    0.7500   -1.2990    0.0000 C   0  0  0  0  0  0  0  0  0  0  0  0
    1.5000    0.0000    0.0000 C   0  0  0  0  0  0  0  0  0  0  0  0
    0.7500    1.2990    0.0000 C   0  0  0  0  0  0  0  0  0  0  0  0
   -0.7500    1.2990    0.0000 C   0  0  0  0  0  0  0  0  0  0  0  0
   -1.5000    0.0000    0.0000 C   0  0  0  0  0  0  0  0  0  0  0  0
   -0.7500   -1.2990    0.0000 N   0  0  0  0  0  0  0  0  0  0  0  0
    0.7500  -14.2894    0.0000 C   0  0  0  0  0  0  0  0  0  0  0  0
   -0.7500  -14.2894    0.0000 O   0  0  0  0  0  0  0  0  0  0  0  0
    1.5000  -15.5885    0.0000 O   0  0  0  0  0  0  0  0  0  0  0  0
    0.7500  -16.8875    0.0000 C   0  0  0  0  0  0  0  0  0  0  0  0
    1.5000  -18.1865    0.0000 C   0  0  0  0  0  0  0  0  0  0  0  0
    0.7500  -19.4856    0.0000 C   0  0  0  0  0  0  0  0  0  0  0  0
    1.5000  -20.7846    0.0000 C   0  0  0  0  0  0  0  0  0  0  0  0
    3.0000  -20.7846    0.0000 C   0  0  0  0  0  0  0  0  0  0  0  0
    3.7500  -22.0836    0.0000 N   0  0  0  0  0  4  0  0  0  0  0  0
    5.2500  -22.0836    0.0000 O   0  0  0  0  0  0  0  0  0  0  0  0
    3.0000  -23.3827    0.0000 O   0  0  0  0  0  1  0  0  0  0  0  0
    3.7500  -19.4856    0.0000 C   0  0  0  0  0  0  0  0  0  0  0  0
    3.0000  -18.1865    0.0000 C   0  0  0  0  0  0  0  0  0  0  0  0
    5.2500  -14.2894    0.0000 O   0  0  0  0  0  0  0  0  0  0  0  0
    6.0000  -15.5885    0.0000 C   0  0  0  0  0  0  0  0  0  0  0  0
    7.5000  -15.5885    0.0000 C   0  0  0  0  0  0  0  0  0  0  0  0
    8.2500  -16.8875    0.0000 C   0  0  0  0  0  0  0  0  0  0  0  0
    9.7500  -16.8875    0.0000 C   0  0  0  0  0  0  0  0  0  0  0  0
   10.5000  -15.5885    0.0000 C   0  0  0  0  0  0  0  0  0  0  0  0
    9.7500  -14.2894    0.0000 C   0  0  0  0  0  0  0  0  0  0  0  0
    8.2500  -14.2894    0.0000 C   0  0  0  0  0  0  0  0  0  0  0  0
  1  2  2  0
  2  3  1  0
  3  4  1  0
  4  5  1  0
  5  6  1  0
  6  7  1  0
  7  8  1  0
  8  9  1  0
  9 10  1  0
 10 11  1  0
 11 12  1  0
 12 13  1  0
 13 14  2  0
 14 15  1  0
 15 16  2  0
 16 17  1  0
 17 18  2  0
  4 19  1  0
 19 20  2  0
 19 21  1  0
 21 22  1  0
 22 23  1  0
 23 24  2  0
 24 25  1  0
 25 26  2  0
 26 27  1  0
 27 28  2  0
 27 29  1  0
 26 30  1  0
 30 31  2  0
  2 32  1  0
 32 33  1  0
 33 34  1  0
 34 35  2  0
 35 36  1  0
 36 37  2  0
 37 38  1  0
 38 39  2  0
 18 13  1  0
 31 23  1  0
 39 34  1  0
M  CHG  2  27   1  29  -1
M  END
>  <molecule_chembl_id>  (1022) 
CHEMBL2022830

>  <canonical_smiles>  (1022) 
O=C(NC(CCCCCCSSc1ccccn1)C(=O)OCc1ccc([N+](=O)[O-])cc1)OCc1ccccc1

>  <pchembl_value_mean>  (1022) 
7.34

>  <document_chembl_id>  (1022) 
CHEMBL2021837

$$$$

     RDKit          2D

 27 29  0  0  0  0  0  0  0  0999 V2000
  -12.9904   -9.6073    0.0000 C   0  0  0  0  0  0  0  0  0  0  0  0
  -11.6913  -10.3573    0.0000 C   0  0  0  0  0  0  0  0  0  0  0  0
  -10.3923   -9.6073    0.0000 C   0  0  0  0  0  0  0  0  0  0  0  0
   -9.0933  -10.3573    0.0000 N   0  0  0  0  0  0  0  0  0  0  0  0
   -7.7942   -9.6073    0.0000 N   0  0  0  0  0  0  0  0  0  0  0  0
   -6.4952  -10.3573    0.0000 C   0  0  0  0  0  0  0  0  0  0  0  0
   -6.4952  -11.8573    0.0000 O   0  0  0  0  0  0  0  0  0  0  0  0
   -5.1962   -9.6073    0.0000 C   0  0  0  0  0  0  0  0  0  0  0  0
   -5.1962   -8.1073    0.0000 C   0  0  0  0  0  0  0  0  0  0  0  0
   -3.8971   -7.3573    0.0000 C   0  0  0  0  0  0  0  0  0  0  0  0
   -2.5981   -8.1073    0.0000 C   0  0  0  0  0  0  0  0  0  0  0  0
   -1.2990   -7.3573    0.0000 C   0  0  0  0  0  0  0  0  0  0  0  0
   -1.2990   -5.8573    0.0000 N   0  0  0  0  0  0  0  0  0  0  0  0
   -0.0000   -5.1073    0.0000 C   0  0  0  0  0  0  0  0  0  0  0  0
    1.2990   -5.8573    0.0000 O   0  0  0  0  0  0  0  0  0  0  0  0
   -0.0000   -3.6073    0.0000 C   0  0  0  0  0  0  0  0  0  0  0  0
    1.2135   -2.7256    0.0000 C   0  0  0  0  0  0  0  0  0  0  0  0
    0.7500   -1.2990    0.0000 C   0  0  0  0  0  0  0  0  0  0  0  0
    1.5000    0.0000    0.0000 C   0  0  0  0  0  0  0  0  0  0  0  0
    0.7500    1.2990    0.0000 C   0  0  0  0  0  0  0  0  0  0  0  0
    1.5000    2.5981    0.0000 Cl  0  0  0  0  0  0  0  0  0  0  0  0
   -0.7500    1.2990    0.0000 C   0  0  0  0  0  0  0  0  0  0  0  0
   -1.5000    0.0000    0.0000 C   0  0  0  0  0  0  0  0  0  0  0  0
   -0.7500   -1.2990    0.0000 C   0  0  0  0  0  0  0  0  0  0  0  0
   -1.2135   -2.7256    0.0000 N   0  0  0  0  0  0  0  0  0  0  0  0
   -2.5981   -9.6073    0.0000 C   0  0  0  0  0  0  0  0  0  0  0  0
   -3.8971  -10.3573    0.0000 C   0  0  0  0  0  0  0  0  0  0  0  0
  1  2  1  0
  2  3  1  0
  3  4  1  0
  4  5  1  0
  5  6  1  0
  6  7  2  0
  6  8  1  0
  8  9  2  0
  9 10  1  0
 10 11  2  0
 11 12  1  0
 12 13  1  0
 13 14  1  0
 14 15  2  0
 14 16  1  0
 16 17  2  0
 17 18  1  0
 18 19  2  0
 19 20  1  0
 20 21  1  0
 20 22  2  0
 22 23  1  0
 23 24  2  0
 24 25  1  0
 11 26  1  0
 26 27  2  0
 27  8  1  0
 25 16  1  0
 24 18  1  0
M  END
>  <molecule_chembl_id>  (1023) 
CHEMBL5087971

>  <canonical_smiles>  (1023) 
CCCNNC(=O)c1ccc(CNC(=O)c2cc3cc(Cl)ccc3[nH]2)cc1

>  <pchembl_value_mean>  (1023) 
7.34

>  <document_chembl_id>  (1023) 
CHEMBL5042504

$$$$

     RDKit          2D

 36 39  0  0  0  0  0  0  0  0999 V2000
    1.5000   -7.7942    0.0000 C   0  0  0  0  0  0  0  0  0  0  0  0
    0.7500   -6.4952    0.0000 C   0  0  0  0  0  0  0  0  0  0  0  0
   -0.7500   -6.4952    0.0000 C   0  0  0  0  0  0  0  0  0  0  0  0
    1.5000   -5.1962    0.0000 C   0  0  0  0  0  0  0  0  0  0  0  0
    0.7500   -3.8971    0.0000 C   0  0  0  0  0  0  0  0  0  0  0  0
    1.5000   -2.5981    0.0000 C   0  0  0  0  0  0  0  0  0  0  0  0
    3.0000   -2.5981    0.0000 O   0  0  0  0  0  0  0  0  0  0  0  0
    0.7500   -1.2990    0.0000 N   0  0  0  0  0  0  0  0  0  0  0  0
    1.5000    0.0000    0.0000 C   0  0  0  0  0  0  0  0  0  0  0  0
    0.7500    1.2990    0.0000 C   0  0  0  0  0  0  0  0  0  0  0  0
   -0.7500    1.2990    0.0000 C   0  0  0  0  0  0  0  0  0  0  0  0
   -0.4895    2.7762    0.0000 N   0  0  0  0  0  0  0  0  0  0  0  0
    0.9200    3.2893    0.0000 C   0  0  0  0  0  0  0  0  0  0  0  0
    2.0691    2.3251    0.0000 N   0  0  0  0  0  0  0  0  0  0  0  0
    3.4786    2.8381    0.0000 C   0  0  0  0  0  0  0  0  0  0  0  0
    3.7391    4.3153    0.0000 C   0  0  0  0  0  0  0  0  0  0  0  0
    5.1486    4.8284    0.0000 C   0  0  0  0  0  0  0  0  0  0  0  0
    5.4091    6.3056    0.0000 O   0  0  0  0  0  0  0  0  0  0  0  0
    6.2977    3.8642    0.0000 N   0  0  0  0  0  0  0  0  0  0  0  0
    7.7072    4.3772    0.0000 O   0  0  0  0  0  0  0  0  0  0  0  0
    2.5900    5.2795    0.0000 C   0  0  0  0  0  0  0  0  0  0  0  0
    1.1805    4.7665    0.0000 N   0  0  0  0  0  0  0  0  0  0  0  0
   -2.1595    1.8121    0.0000 C   0  0  0  0  0  0  0  0  0  0  0  0
   -2.4200    3.2893    0.0000 C   0  0  0  0  0  0  0  0  0  0  0  0
   -3.8296    3.8023    0.0000 C   0  0  0  0  0  0  0  0  0  0  0  0
   -4.9786    2.8381    0.0000 C   0  0  0  0  0  0  0  0  0  0  0  0
   -4.7181    1.3609    0.0000 C   0  0  0  0  0  0  0  0  0  0  0  0
   -3.3086    0.8479    0.0000 C   0  0  0  0  0  0  0  0  0  0  0  0
   -1.5000    0.0000    0.0000 C   0  0  0  0  0  0  0  0  0  0  0  0
   -0.7500   -1.2990    0.0000 C   0  0  0  0  0  0  0  0  0  0  0  0
   -0.7500   -3.8971    0.0000 C   0  0  0  0  0  0  0  0  0  0  0  0
   -1.5000   -2.5981    0.0000 C   0  0  0  0  0  0  0  0  0  0  0  0
   -3.0000   -2.5981    0.0000 C   0  0  0  0  0  0  0  0  0  0  0  0
   -3.7500   -3.8971    0.0000 C   0  0  0  0  0  0  0  0  0  0  0  0
   -3.0000   -5.1962    0.0000 C   0  0  0  0  0  0  0  0  0  0  0  0
   -1.5000   -5.1962    0.0000 C   0  0  0  0  0  0  0  0  0  0  0  0
  1  2  1  0
  2  3  1  0
  2  4  1  0
  4  5  1  0
  5  6  1  0
  6  7  2  0
  6  8  1  0
  8  9  1  0
  9 10  1  0
 10 11  1  0
 11 12  1  0
 12 13  1  0
 13 14  2  0
 14 15  1  0
 15 16  2  0
 16 17  1  0
 17 18  2  0
 17 19  1  0
 19 20  1  0
 16 21  1  0
 21 22  2  0
 11 23  1  0
 23 24  2  0
 24 25  1  0
 25 26  2  0
 26 27  1  0
 27 28  2  0
 11 29  1  0
 29 30  1  0
  5 31  1  0
 31 32  2  0
 32 33  1  0
 33 34  2  0
 34 35  1  0
 35 36  2  0
 30  8  1  0
 36 31  1  0
 22 13  1  0
 28 23  1  0
M  END
>  <molecule_chembl_id>  (1024) 
CHEMBL3907413

>  <canonical_smiles>  (1024) 
CC(C)CC(C(=O)N1CCC(Nc2ncc(C(=O)NO)cn2)(c2ccccc2)CC1)c1ccccc1

>  <pchembl_value_mean>  (1024) 
7.345

>  <document_chembl_id>  (1024) 
CHEMBL3886590

$$$$

     RDKit          2D

 32 36  0  0  0  0  0  0  0  0999 V2000
    6.0000   -7.7942    0.0000 N   0  0  0  0  0  0  0  0  0  0  0  0
    5.2500   -9.0933    0.0000 C   0  0  0  0  0  0  0  0  0  0  0  0
    6.0000  -10.3923    0.0000 C   0  0  0  0  0  0  0  0  0  0  0  0
    5.2500  -11.6913    0.0000 C   0  0  0  0  0  0  0  0  0  0  0  0
    3.7500  -11.6913    0.0000 C   0  0  0  0  0  0  0  0  0  0  0  0
    3.0000  -12.9904    0.0000 C   0  0  0  0  0  0  0  0  0  0  0  0
    3.6101  -14.3607    0.0000 C   0  0  0  0  0  0  0  0  0  0  0  0
    2.4954  -15.3644    0.0000 C   0  0  0  0  0  0  0  0  0  0  0  0
    1.1963  -14.6144    0.0000 C   0  0  0  0  0  0  0  0  0  0  0  0
    1.5082  -13.1472    0.0000 S   0  0  0  0  0  0  0  0  0  0  0  0
    3.0000  -10.3923    0.0000 C   0  0  0  0  0  0  0  0  0  0  0  0
    3.7500   -9.0933    0.0000 C   0  0  0  0  0  0  0  0  0  0  0  0
    3.0000   -7.7942    0.0000 N   0  0  0  0  0  0  0  0  0  0  0  0
    3.7500   -6.4952    0.0000 C   0  0  0  0  0  0  0  0  0  0  0  0
    5.2500   -6.4952    0.0000 O   0  0  0  0  0  0  0  0  0  0  0  0
    3.0000   -5.1962    0.0000 C   0  0  0  0  0  0  0  0  0  0  0  0
    3.7500   -3.8971    0.0000 C   0  0  0  0  0  0  0  0  0  0  0  0
    3.0000   -2.5981    0.0000 C   0  0  0  0  0  0  0  0  0  0  0  0
    1.5000   -2.5981    0.0000 C   0  0  0  0  0  0  0  0  0  0  0  0
    0.7500   -1.2990    0.0000 N   0  0  0  0  0  0  0  0  0  0  0  0
    1.5000    0.0000    0.0000 C   0  0  0  0  0  0  0  0  0  0  0  0
    0.7500    1.2990    0.0000 C   0  0  0  0  0  0  0  0  0  0  0  0
   -0.7500    1.2990    0.0000 C   0  0  0  0  0  0  0  0  0  0  0  0
   -1.5000    0.0000    0.0000 C   0  0  0  0  0  0  0  0  0  0  0  0
   -0.7500   -1.2990    0.0000 C   0  0  0  0  0  0  0  0  0  0  0  0
   -2.2418    1.4558    0.0000 C   0  0  0  0  0  0  0  0  0  0  0  0
   -2.5537    2.9231    0.0000 N   0  0  0  0  0  0  0  0  0  0  0  0
   -1.2546    3.6731    0.0000 C   0  0  0  0  0  0  0  0  0  0  0  0
   -1.0978    5.1648    0.0000 O   0  0  0  0  0  0  0  0  0  0  0  0
   -0.1399    2.6694    0.0000 O   0  0  0  0  0  0  0  0  0  0  0  0
    0.7500   -3.8971    0.0000 N   0  0  0  0  0  0  0  0  0  0  0  0
    1.5000   -5.1962    0.0000 C   0  0  0  0  0  0  0  0  0  0  0  0
  1  2  1  0
  2  3  2  0
  3  4  1  0
  4  5  2  0
  5  6  1  0
  6  7  2  0
  7  8  1  0
  8  9  2  0
  9 10  1  0
  5 11  1  0
 11 12  2  0
 12 13  1  0
 13 14  1  0
 14 15  2  0
 14 16  1  0
 16 17  2  0
 17 18  1  0
 18 19  2  0
 19 20  1  0
 20 21  1  0
 21 22  1  0
 22 23  1  0
 23 24  1  0
 24 25  1  0
 23 26  1  0
 26 27  1  0
 27 28  1  0
 28 29  2  0
 28 30  1  0
 19 31  1  0
 31 32  2  0
 12  2  1  0
 32 16  1  0
 10  6  1  0
 25 20  1  0
 30 23  1  0
M  END
>  <molecule_chembl_id>  (1025) 
CHEMBL3286732

>  <canonical_smiles>  (1025) 
Nc1ccc(-c2cccs2)cc1NC(=O)c1ccc(N2CCC3(CC2)CNC(=O)O3)nc1

>  <pchembl_value_mean>  (1025) 
7.35

>  <document_chembl_id>  (1025) 
CHEMBL3286368

$$$$

     RDKit          2D

 24 25  0  0  0  0  0  0  0  0999 V2000
   12.7500   -3.8971    0.0000 O   0  0  0  0  0  0  0  0  0  0  0  0
   12.0000   -5.1962    0.0000 C   0  0  0  0  0  0  0  0  0  0  0  0
   10.5000   -5.1962    0.0000 C   0  0  0  0  0  0  0  0  0  0  0  0
    9.7500   -3.8971    0.0000 C   0  0  0  0  0  0  0  0  0  0  0  0
    8.2500   -3.8971    0.0000 C   0  0  0  0  0  0  0  0  0  0  0  0
    7.5000   -2.5981    0.0000 C   0  0  0  0  0  0  0  0  0  0  0  0
    6.0000   -2.5981    0.0000 C   0  0  0  0  0  0  0  0  0  0  0  0
    5.2500   -1.2990    0.0000 C   0  0  0  0  0  0  0  0  0  0  0  0
    3.7500   -1.2990    0.0000 C   0  0  0  0  0  0  0  0  0  0  0  0
    3.0000   -2.5981    0.0000 O   0  0  0  0  0  0  0  0  0  0  0  0
    3.0000    0.0000    0.0000 N   0  0  0  0  0  0  0  0  0  0  0  0
    1.5000    0.0000    0.0000 C   0  0  0  0  0  0  0  0  0  0  0  0
    0.7500   -1.2990    0.0000 C   0  0  0  0  0  0  0  0  0  0  0  0
   -0.7500   -1.2990    0.0000 C   0  0  0  0  0  0  0  0  0  0  0  0
   -1.5000    0.0000    0.0000 C   0  0  0  0  0  0  0  0  0  0  0  0
   -3.0000    0.0000    0.0000 N   0  0  0  0  0  0  0  0  0  0  0  0
   -3.7500    1.2990    0.0000 C   0  0  0  0  0  0  0  0  0  0  0  0
   -5.2500    1.2990    0.0000 O   0  0  0  0  0  0  0  0  0  0  0  0
   -3.0000    2.5981    0.0000 C   0  0  0  0  0  0  0  0  0  0  0  0
   -1.5000    2.5981    0.0000 C   0  0  0  0  0  0  0  0  0  0  0  0
   -0.7500    1.2990    0.0000 C   0  0  0  0  0  0  0  0  0  0  0  0
    0.7500    1.2990    0.0000 C   0  0  0  0  0  0  0  0  0  0  0  0
   12.7500   -6.4952    0.0000 N   0  0  0  0  0  0  0  0  0  0  0  0
   14.2500   -6.4952    0.0000 O   0  0  0  0  0  0  0  0  0  0  0  0
  1  2  2  0
  2  3  1  0
  3  4  1  0
  4  5  1  0
  5  6  1  0
  6  7  1  0
  7  8  1  0
  8  9  1  0
  9 10  2  0
  9 11  1  0
 11 12  1  0
 12 13  2  0
 13 14  1  0
 14 15  2  0
 15 16  1  0
 16 17  1  0
 17 18  2  0
 17 19  1  0
 19 20  2  0
 20 21  1  0
 21 22  2  0
  2 23  1  0
 23 24  1  0
 22 12  1  0
 21 15  1  0
M  END
>  <molecule_chembl_id>  (1026) 
CHEMBL3311464

>  <canonical_smiles>  (1026) 
O=C(CCCCCCC(=O)Nc1ccc2[nH]c(=O)ccc2c1)NO

>  <pchembl_value_mean>  (1026) 
7.35

>  <document_chembl_id>  (1026) 
CHEMBL3351757

$$$$

     RDKit          2D

 33 35  0  0  0  0  0  0  0  0999 V2000
    1.5922    6.6948    0.0000 C   0  0  0  0  0  0  0  0  0  0  0  0
    0.1004    6.8516    0.0000 C   0  0  0  0  0  0  0  0  0  0  0  0
   -0.5097    8.2219    0.0000 C   0  0  0  0  0  0  0  0  0  0  0  0
   -0.7813    5.6380    0.0000 C   0  0  0  0  0  0  0  0  0  0  0  0
    0.2369    4.5365    0.0000 N   0  0  0  0  0  0  0  0  0  0  0  0
    0.7561    3.1293    0.0000 C   0  0  0  0  0  0  0  0  0  0  0  0
    2.2376    3.3639    0.0000 O   0  0  0  0  0  0  0  0  0  0  0  0
    0.3943    1.2135    0.0000 C   0  0  0  0  0  0  0  0  0  0  0  0
    0.4790    2.4256    0.0000 C   0  0  0  0  0  0  0  0  0  0  0  0
    1.2760    0.0000    0.0000 C   0  0  0  0  0  0  0  0  0  0  0  0
    0.3943   -1.2135    0.0000 S   0  0  0  0  0  0  0  0  0  0  0  0
   -1.0323   -0.7500    0.0000 C   0  0  0  0  0  0  0  0  0  0  0  0
   -1.0323    0.7500    0.0000 N   0  0  0  0  0  0  0  0  0  0  0  0
   -2.4396   -1.2692    0.0000 C   0  0  0  0  0  0  0  0  0  0  0  0
   -3.2233   -2.5481    0.0000 C   0  0  0  0  0  0  0  0  0  0  0  0
   -4.6819   -2.1980    0.0000 S   0  0  0  0  0  0  0  0  0  0  0  0
   -5.3006   -0.5823    0.0000 C   0  0  0  0  0  0  0  0  0  0  0  0
   -3.9384   -1.2103    0.0000 N   0  0  0  0  0  0  0  0  0  0  0  0
   -6.3188    0.5192    0.0000 C   0  0  0  0  0  0  0  0  0  0  0  0
   -6.8380    1.9265    0.0000 N   0  0  0  0  0  0  0  0  0  0  0  0
   -6.7791    3.4253    0.0000 C   0  0  0  0  0  0  0  0  0  0  0  0
   -8.2377    3.7755    0.0000 O   0  0  0  0  0  0  0  0  0  0  0  0
   -6.1511    4.7875    0.0000 C   0  0  0  0  0  0  0  0  0  0  0  0
   -5.0496    5.8057    0.0000 C   0  0  0  0  0  0  0  0  0  0  0  0
   -5.8334    7.0847    0.0000 C   0  0  0  0  0  0  0  0  0  0  0  0
   -7.3329    7.0454    0.0000 F   0  0  0  0  0  0  0  0  0  0  0  0
   -5.1177    8.4029    0.0000 C   0  0  0  0  0  0  0  0  0  0  0  0
   -5.9014    9.6819    0.0000 C   0  0  0  0  0  0  0  0  0  0  0  0
   -5.1857   11.0001    0.0000 C   0  0  0  0  0  0  0  0  0  0  0  0
   -5.9694   12.2791    0.0000 S   0  0  0  0  0  0  0  0  0  0  0  0
   -3.6424    6.3249    0.0000 O   0  0  0  0  0  0  0  0  0  0  0  0
   -2.1435    6.2660    0.0000 C   0  0  0  0  0  0  0  0  0  0  0  0
   -1.7933    7.7246    0.0000 O   0  0  0  0  0  0  0  0  0  0  0  0
  1  2  1  0
  2  3  1  0
  2  4  1  0
  4  5  1  0
  5  6  1  0
  6  7  2  0
  6  8  1  0
  8  9  1  0
  8 10  1  0
 10 11  1  0
 11 12  1  0
 12 13  2  0
 12 14  1  0
 14 15  2  0
 15 16  1  0
 16 17  1  0
 17 18  2  0
 17 19  1  0
 19 20  1  0
 20 21  1  0
 21 22  2  0
 21 23  1  0
 23 24  1  0
 24 25  1  0
 25 26  1  0
 25 27  2  3
 27 28  1  0
 28 29  1  0
 29 30  1  0
 24 31  1  0
 31 32  1  0
 32 33  2  0
 32  4  1  0
 13  8  1  0
 18 14  1  0
M  END
>  <molecule_chembl_id>  (1027) 
CHEMBL4529140

>  <canonical_smiles>  (1027) 
CC(C)C1NC(=O)C2(C)CSC(=N2)c2csc(n2)CNC(=O)CC(C(F)=CCCS)OC1=O

>  <pchembl_value_mean>  (1027) 
7.35

>  <document_chembl_id>  (1027) 
CHEMBL4359920

$$$$

     RDKit          2D

 30 33  0  0  0  0  0  0  0  0999 V2000
    3.0000    0.0000    0.0000 N   0  0  0  0  0  0  0  0  0  0  0  0
    1.5000    0.0000    0.0000 C   0  0  0  0  0  0  0  0  0  0  0  0
    0.7500   -1.2990    0.0000 C   0  0  0  0  0  0  0  0  0  0  0  0
   -0.7500   -1.2990    0.0000 C   0  0  0  0  0  0  0  0  0  0  0  0
   -1.5000    0.0000    0.0000 C   0  0  0  0  0  0  0  0  0  0  0  0
   -0.7500    1.2990    0.0000 C   0  0  0  0  0  0  0  0  0  0  0  0
    0.7500    1.2990    0.0000 C   0  0  0  0  0  0  0  0  0  0  0  0
    1.5000    2.5981    0.0000 N   0  0  0  0  0  0  0  0  0  0  0  0
    0.7500    3.8971    0.0000 C   0  0  0  0  0  0  0  0  0  0  0  0
   -0.7500    3.8971    0.0000 O   0  0  0  0  0  0  0  0  0  0  0  0
    1.5000    5.1962    0.0000 C   0  0  0  0  0  0  0  0  0  0  0  0
    3.0000    5.1962    0.0000 C   0  0  0  0  0  0  0  0  0  0  0  0
    3.7500    6.4952    0.0000 C   0  0  0  0  0  0  0  0  0  0  0  0
    3.0000    7.7942    0.0000 C   0  0  0  0  0  0  0  0  0  0  0  0
    3.7500    9.0933    0.0000 C   0  0  0  0  0  0  0  0  0  0  0  0
    5.2500    9.0933    0.0000 N   0  0  0  0  0  0  0  0  0  0  0  0
    6.0000   10.3923    0.0000 C   0  0  0  0  0  0  0  0  0  0  0  0
    5.3899   11.7626    0.0000 N   0  0  0  0  0  0  0  0  0  0  0  0
    6.5046   12.7663    0.0000 C   0  0  0  0  0  0  0  0  0  0  0  0
    6.3478   14.2581    0.0000 C   0  0  0  0  0  0  0  0  0  0  0  0
    7.5613   15.1398    0.0000 C   0  0  0  0  0  0  0  0  0  0  0  0
    7.4046   16.6316    0.0000 C   0  0  0  0  0  0  0  0  0  0  0  0
    6.0342   17.2417    0.0000 C   0  0  0  0  0  0  0  0  0  0  0  0
    5.8774   18.7335    0.0000 O   0  0  0  0  0  0  0  0  0  0  0  0
    4.8207   16.3600    0.0000 C   0  0  0  0  0  0  0  0  0  0  0  0
    4.9775   14.8682    0.0000 C   0  0  0  0  0  0  0  0  0  0  0  0
    7.8037   12.0163    0.0000 C   0  0  0  0  0  0  0  0  0  0  0  0
    7.4918   10.5491    0.0000 S   0  0  0  0  0  0  0  0  0  0  0  0
    1.5000    7.7942    0.0000 C   0  0  0  0  0  0  0  0  0  0  0  0
    0.7500    6.4952    0.0000 C   0  0  0  0  0  0  0  0  0  0  0  0
  1  2  1  0
  2  3  2  0
  3  4  1  0
  4  5  2  0
  5  6  1  0
  6  7  2  0
  7  8  1  0
  8  9  1  0
  9 10  2  0
  9 11  1  0
 11 12  2  0
 12 13  1  0
 13 14  2  0
 14 15  1  0
 15 16  1  0
 16 17  1  0
 17 18  2  0
 18 19  1  0
 19 20  1  0
 20 21  2  0
 21 22  1  0
 22 23  2  0
 23 24  1  0
 23 25  1  0
 25 26  2  0
 19 27  1  0
 27 28  1  0
 14 29  1  0
 29 30  2  0
  7  2  1  0
 30 11  1  0
 28 17  1  0
 26 20  1  0
M  END
>  <molecule_chembl_id>  (1028) 
CHEMBL2407719

>  <canonical_smiles>  (1028) 
Nc1ccccc1NC(=O)c1ccc(CNC2=NC(c3ccc(O)cc3)CS2)cc1

>  <pchembl_value_mean>  (1028) 
7.36

>  <document_chembl_id>  (1028) 
CHEMBL2407081

$$$$

     RDKit          2D

 31 35  0  0  0  0  0  0  0  0999 V2000
    2.6353   12.3143    0.0000 N   0  0  0  0  0  0  0  0  0  0  0  0
    4.1025   12.6262    0.0000 C   0  0  0  0  0  0  0  0  0  0  0  0
    4.5660   14.0528    0.0000 C   0  0  0  0  0  0  0  0  0  0  0  0
    6.0332   14.3647    0.0000 C   0  0  0  0  0  0  0  0  0  0  0  0
    7.0369   13.2499    0.0000 C   0  0  0  0  0  0  0  0  0  0  0  0
    8.5042   13.5618    0.0000 C   0  0  0  0  0  0  0  0  0  0  0  0
    9.1143   14.9321    0.0000 C   0  0  0  0  0  0  0  0  0  0  0  0
   10.6061   14.7753    0.0000 C   0  0  0  0  0  0  0  0  0  0  0  0
   10.9179   13.3081    0.0000 C   0  0  0  0  0  0  0  0  0  0  0  0
    9.6189   12.5581    0.0000 S   0  0  0  0  0  0  0  0  0  0  0  0
    6.5734   11.8234    0.0000 C   0  0  0  0  0  0  0  0  0  0  0  0
    5.1062   11.5115    0.0000 C   0  0  0  0  0  0  0  0  0  0  0  0
    4.6427   10.0849    0.0000 N   0  0  0  0  0  0  0  0  0  0  0  0
    3.1755    9.7730    0.0000 C   0  0  0  0  0  0  0  0  0  0  0  0
    2.1718   10.8878    0.0000 O   0  0  0  0  0  0  0  0  0  0  0  0
    2.7119    8.3464    0.0000 C   0  0  0  0  0  0  0  0  0  0  0  0
    1.2447    8.0346    0.0000 C   0  0  0  0  0  0  0  0  0  0  0  0
    0.7812    6.6080    0.0000 C   0  0  0  0  0  0  0  0  0  0  0  0
    1.7849    5.4933    0.0000 C   0  0  0  0  0  0  0  0  0  0  0  0
    1.3213    4.0667    0.0000 N   0  0  0  0  0  0  0  0  0  0  0  0
   -0.1459    3.7548    0.0000 C   0  0  0  0  0  0  0  0  0  0  0  0
   -0.6094    2.3282    0.0000 C   0  0  0  0  0  0  0  0  0  0  0  0
    0.3943    1.2135    0.0000 C   0  0  0  0  0  0  0  0  0  0  0  0
    1.2760    0.0000    0.0000 C   0  0  0  0  0  0  0  0  0  0  0  0
    0.3943   -1.2135    0.0000 C   0  0  0  0  0  0  0  0  0  0  0  0
   -1.0323   -0.7500    0.0000 N   0  0  0  0  0  0  0  0  0  0  0  0
   -1.0323    0.7500    0.0000 C   0  0  0  0  0  0  0  0  0  0  0  0
    1.8615    1.5254    0.0000 C   0  0  0  0  0  0  0  0  0  0  0  0
    2.3250    2.9520    0.0000 C   0  0  0  0  0  0  0  0  0  0  0  0
    3.2521    5.8051    0.0000 N   0  0  0  0  0  0  0  0  0  0  0  0
    3.7156    7.2317    0.0000 C   0  0  0  0  0  0  0  0  0  0  0  0
  1  2  1  0
  2  3  2  0
  3  4  1  0
  4  5  2  0
  5  6  1  0
  6  7  2  0
  7  8  1  0
  8  9  2  0
  9 10  1  0
  5 11  1  0
 11 12  2  0
 12 13  1  0
 13 14  1  0
 14 15  2  0
 14 16  1  0
 16 17  2  0
 17 18  1  0
 18 19  2  0
 19 20  1  0
 20 21  1  0
 21 22  1  0
 22 23  1  0
 23 24  1  0
 24 25  1  0
 25 26  1  0
 26 27  1  0
 23 28  1  0
 28 29  1  0
 19 30  1  0
 30 31  2  0
 12  2  1  0
 31 16  1  0
 10  6  1  0
 29 20  1  0
 27 23  1  0
M  END
>  <molecule_chembl_id>  (1029) 
CHEMBL513568

>  <canonical_smiles>  (1029) 
Nc1ccc(-c2cccs2)cc1NC(=O)c1ccc(N2CCC3(CCNC3)CC2)nc1

>  <pchembl_value_mean>  (1029) 
7.36

>  <document_chembl_id>  (1029) 
CHEMBL1152282

$$$$

     RDKit          2D

 44 48  0  0  0  0  0  0  0  0999 V2000
    7.5000   -7.7942    0.0000 O   0  0  0  0  0  0  0  0  0  0  0  0
    6.0000   -7.7942    0.0000 C   0  0  0  0  0  0  0  0  0  0  0  0
    5.2500   -6.4952    0.0000 N   0  0  0  0  0  0  0  0  0  0  0  0
    6.0000   -5.1962    0.0000 C   0  0  0  0  0  0  0  0  0  0  0  0
    7.5000   -5.1962    0.0000 C   0  0  0  0  0  0  0  0  0  0  0  0
    8.2500   -6.4952    0.0000 C   0  0  0  0  0  0  0  0  0  0  0  0
    9.7500   -6.4952    0.0000 C   0  0  0  0  0  0  0  0  0  0  0  0
   10.5000   -7.7942    0.0000 C   0  0  0  0  0  0  0  0  0  0  0  0
   12.0000   -7.7942    0.0000 C   0  0  0  0  0  0  0  0  0  0  0  0
   12.7500   -9.0933    0.0000 C   0  0  0  0  0  0  0  0  0  0  0  0
   14.2500   -9.0933    0.0000 S   0  0  0  0  0  0  0  0  0  0  0  0
   15.0000  -10.3923    0.0000 S   0  0  0  0  0  0  0  0  0  0  0  0
   16.5000  -10.3923    0.0000 C   0  0  0  0  0  0  0  0  0  0  0  0
   17.2500  -11.6913    0.0000 C   0  0  0  0  0  0  0  0  0  0  0  0
   18.7500  -11.6913    0.0000 C   0  0  0  0  0  0  0  0  0  0  0  0
   19.5000  -10.3923    0.0000 C   0  0  0  0  0  0  0  0  0  0  0  0
   18.7500   -9.0933    0.0000 C   0  0  0  0  0  0  0  0  0  0  0  0
   17.2500   -9.0933    0.0000 N   0  0  0  0  0  0  0  0  0  0  0  0
    5.2500   -3.8971    0.0000 C   0  0  0  0  0  0  0  0  0  0  0  0
    6.0000   -2.5981    0.0000 O   0  0  0  0  0  0  0  0  0  0  0  0
    3.7500   -3.8971    0.0000 O   0  0  0  0  0  0  0  0  0  0  0  0
    3.0000   -2.5981    0.0000 C   0  0  0  0  0  0  0  0  0  0  0  0
    1.5000   -2.5981    0.0000 C   0  0  0  0  0  0  0  0  0  0  0  0
    0.7500   -1.2990    0.0000 C   0  0  0  0  0  0  0  0  0  0  0  0
    1.5000    0.0000    0.0000 C   0  0  0  0  0  0  0  0  0  0  0  0
    0.7500    1.2990    0.0000 C   0  0  0  0  0  0  0  0  0  0  0  0
   -0.7500    1.2990    0.0000 C   0  0  0  0  0  0  0  0  0  0  0  0
   -1.5000    0.0000    0.0000 C   0  0  0  0  0  0  0  0  0  0  0  0
   -0.7500   -1.2990    0.0000 C   0  0  0  0  0  0  0  0  0  0  0  0
   -1.5000   -2.5981    0.0000 C   0  0  0  0  0  0  0  0  0  0  0  0
   -0.7500   -3.8971    0.0000 C   0  0  0  0  0  0  0  0  0  0  0  0
   -1.5000   -5.1962    0.0000 C   0  0  0  0  0  0  0  0  0  0  0  0
   -0.7500   -6.4952    0.0000 C   0  0  0  0  0  0  0  0  0  0  0  0
    0.7500   -6.4952    0.0000 C   0  0  0  0  0  0  0  0  0  0  0  0
    1.5000   -5.1962    0.0000 C   0  0  0  0  0  0  0  0  0  0  0  0
    0.7500   -3.8971    0.0000 C   0  0  0  0  0  0  0  0  0  0  0  0
    5.2500   -9.0933    0.0000 O   0  0  0  0  0  0  0  0  0  0  0  0
    6.0000  -10.3923    0.0000 C   0  0  0  0  0  0  0  0  0  0  0  0
    5.2500  -11.6913    0.0000 C   0  0  0  0  0  0  0  0  0  0  0  0
    3.7500  -11.6913    0.0000 C   0  0  0  0  0  0  0  0  0  0  0  0
    3.0000  -12.9904    0.0000 C   0  0  0  0  0  0  0  0  0  0  0  0
    3.7500  -14.2894    0.0000 C   0  0  0  0  0  0  0  0  0  0  0  0
    5.2500  -14.2894    0.0000 C   0  0  0  0  0  0  0  0  0  0  0  0
    6.0000  -12.9904    0.0000 C   0  0  0  0  0  0  0  0  0  0  0  0
  1  2  2  0
  2  3  1  0
  3  4  1  0
  4  5  1  0
  5  6  1  0
  6  7  1  0
  7  8  1  0
  8  9  1  0
  9 10  1  0
 10 11  1  0
 11 12  1  0
 12 13  1  0
 13 14  2  0
 14 15  1  0
 15 16  2  0
 16 17  1  0
 17 18  2  0
  4 19  1  0
 19 20  2  0
 19 21  1  0
 21 22  1  0
 22 23  1  0
 23 24  1  0
 24 25  2  0
 25 26  1  0
 26 27  2  0
 27 28  1  0
 28 29  2  0
 29 30  1  0
 30 31  2  0
 31 32  1  0
 32 33  2  0
 33 34  1  0
 34 35  2  0
 35 36  1  0
  2 37  1  0
 37 38  1  0
 38 39  1  0
 39 40  2  0
 40 41  1  0
 41 42  2  0
 42 43  1  0
 43 44  2  0
 18 13  1  0
 36 23  2  0
 44 39  1  0
 29 24  1  0
 36 31  1  0
M  END
>  <molecule_chembl_id>  (1030) 
CHEMBL2022834

>  <canonical_smiles>  (1030) 
O=C(NC(CCCCCCSSc1ccccn1)C(=O)OCc1c2ccccc2cc2ccccc12)OCc1ccccc1

>  <pchembl_value_mean>  (1030) 
7.36

>  <document_chembl_id>  (1030) 
CHEMBL2021837

$$$$

     RDKit          2D

 35 37  0  0  0  0  0  0  0  0999 V2000
    3.0000  -15.5885    0.0000 O   0  0  0  0  0  0  0  0  0  0  0  0
    3.7500  -14.2894    0.0000 C   0  0  0  0  0  0  0  0  0  0  0  0
    3.0000  -12.9904    0.0000 N   0  0  0  0  0  0  0  0  0  0  0  0
    1.5000  -12.9904    0.0000 C   0  0  0  0  0  0  0  0  0  0  0  0
    0.7500  -11.6913    0.0000 C   0  0  0  0  0  0  0  0  0  0  0  0
    1.5000  -10.3923    0.0000 C   0  0  0  0  0  0  0  0  0  0  0  0
    0.7500   -9.0933    0.0000 C   0  0  0  0  0  0  0  0  0  0  0  0
    1.5000   -7.7942    0.0000 C   0  0  0  0  0  0  0  0  0  0  0  0
    0.7500   -6.4952    0.0000 C   0  0  0  0  0  0  0  0  0  0  0  0
    1.5000   -5.1962    0.0000 C   0  0  0  0  0  0  0  0  0  0  0  0
    0.7500   -3.8971    0.0000 S   0  0  0  0  0  0  0  0  0  0  0  0
    1.5000   -2.5981    0.0000 S   0  0  0  0  0  0  0  0  0  0  0  0
    0.7500   -1.2990    0.0000 C   0  0  0  0  0  0  0  0  0  0  0  0
    1.5000    0.0000    0.0000 C   0  0  0  0  0  0  0  0  0  0  0  0
    0.7500    1.2990    0.0000 C   0  0  0  0  0  0  0  0  0  0  0  0
   -0.7500    1.2990    0.0000 C   0  0  0  0  0  0  0  0  0  0  0  0
   -1.5000    0.0000    0.0000 C   0  0  0  0  0  0  0  0  0  0  0  0
   -0.7500   -1.2990    0.0000 N   0  0  0  0  0  0  0  0  0  0  0  0
    0.7500  -14.2894    0.0000 C   0  0  0  0  0  0  0  0  0  0  0  0
   -0.7500  -14.2894    0.0000 O   0  0  0  0  0  0  0  0  0  0  0  0
    1.5000  -15.5885    0.0000 N   0  0  0  0  0  0  0  0  0  0  0  0
    0.7500  -16.8875    0.0000 C   0  0  0  0  0  0  0  0  0  0  0  0
   -0.7500  -16.8875    0.0000 C   0  0  0  0  0  0  0  0  0  0  0  0
   -1.5000  -18.1865    0.0000 C   0  0  0  0  0  0  0  0  0  0  0  0
   -0.7500  -19.4856    0.0000 C   0  0  0  0  0  0  0  0  0  0  0  0
    0.7500  -19.4856    0.0000 C   0  0  0  0  0  0  0  0  0  0  0  0
    1.5000  -18.1865    0.0000 C   0  0  0  0  0  0  0  0  0  0  0  0
    5.2500  -14.2894    0.0000 O   0  0  0  0  0  0  0  0  0  0  0  0
    6.0000  -15.5885    0.0000 C   0  0  0  0  0  0  0  0  0  0  0  0
    7.5000  -15.5885    0.0000 C   0  0  0  0  0  0  0  0  0  0  0  0
    8.2500  -16.8875    0.0000 C   0  0  0  0  0  0  0  0  0  0  0  0
    9.7500  -16.8875    0.0000 C   0  0  0  0  0  0  0  0  0  0  0  0
   10.5000  -15.5885    0.0000 C   0  0  0  0  0  0  0  0  0  0  0  0
    9.7500  -14.2894    0.0000 C   0  0  0  0  0  0  0  0  0  0  0  0
    8.2500  -14.2894    0.0000 C   0  0  0  0  0  0  0  0  0  0  0  0
  1  2  2  0
  2  3  1  0
  3  4  1  0
  4  5  1  0
  5  6  1  0
  6  7  1  0
  7  8  1  0
  8  9  1  0
  9 10  1  0
 10 11  1  0
 11 12  1  0
 12 13  1  0
 13 14  2  0
 14 15  1  0
 15 16  2  0
 16 17  1  0
 17 18  2  0
  4 19  1  0
 19 20  2  0
 19 21  1  0
 21 22  1  0
 22 23  1  0
 23 24  1  0
 24 25  1  0
 25 26  1  0
 26 27  1  0
  2 28  1  0
 28 29  1  0
 29 30  1  0
 30 31  2  0
 31 32  1  0
 32 33  2  0
 33 34  1  0
 34 35  2  0
 18 13  1  0
 27 22  1  0
 35 30  1  0
M  END
>  <molecule_chembl_id>  (1031) 
CHEMBL2022824

>  <canonical_smiles>  (1031) 
O=C(NC(CCCCCCSSc1ccccn1)C(=O)NC1CCCCC1)OCc1ccccc1

>  <pchembl_value_mean>  (1031) 
7.36

>  <document_chembl_id>  (1031) 
CHEMBL2021837

$$$$

     RDKit          2D

 23 24  0  0  0  0  0  0  0  0999 V2000
    1.5000   -7.7942    0.0000 C   0  0  0  0  0  0  0  0  0  0  0  0
    0.7500   -6.4952    0.0000 C   0  0  0  0  0  0  0  0  0  0  0  0
   -0.7500   -6.4952    0.0000 C   0  0  0  0  0  0  0  0  0  0  0  0
    1.5000   -5.1962    0.0000 C   0  0  0  0  0  0  0  0  0  0  0  0
    0.7500   -3.8971    0.0000 C   0  0  0  0  0  0  0  0  0  0  0  0
   -0.7500   -3.8971    0.0000 O   0  0  0  0  0  0  0  0  0  0  0  0
    1.5000   -2.5981    0.0000 N   0  0  0  0  0  0  0  0  0  0  0  0
    0.7500   -1.2990    0.0000 C   0  0  0  0  0  0  0  0  0  0  0  0
    1.5000    0.0000    0.0000 C   0  0  0  0  0  0  0  0  0  0  0  0
    0.7500    1.2990    0.0000 C   0  0  0  0  0  0  0  0  0  0  0  0
   -0.7500    1.2990    0.0000 C   0  0  0  0  0  0  0  0  0  0  0  0
   -1.5000    2.5981    0.0000 C   0  0  0  0  0  0  0  0  0  0  0  0
   -3.0000    2.5981    0.0000 O   0  0  0  0  0  0  0  0  0  0  0  0
   -0.7500    3.8971    0.0000 N   0  0  0  0  0  0  0  0  0  0  0  0
   -1.5000    5.1962    0.0000 O   0  0  0  0  0  0  0  0  0  0  0  0
   -1.5000    0.0000    0.0000 C   0  0  0  0  0  0  0  0  0  0  0  0
   -0.7500   -1.2990    0.0000 C   0  0  0  0  0  0  0  0  0  0  0  0
    3.0000   -5.1962    0.0000 C   0  0  0  0  0  0  0  0  0  0  0  0
    3.7500   -6.4952    0.0000 C   0  0  0  0  0  0  0  0  0  0  0  0
    5.2500   -6.4952    0.0000 C   0  0  0  0  0  0  0  0  0  0  0  0
    6.0000   -5.1962    0.0000 C   0  0  0  0  0  0  0  0  0  0  0  0
    5.2500   -3.8971    0.0000 C   0  0  0  0  0  0  0  0  0  0  0  0
    3.7500   -3.8971    0.0000 C   0  0  0  0  0  0  0  0  0  0  0  0
  1  2  1  0
  2  3  1  0
  2  4  1  0
  4  5  1  0
  5  6  2  0
  5  7  1  0
  7  8  1  0
  8  9  2  0
  9 10  1  0
 10 11  2  0
 11 12  1  0
 12 13  2  0
 12 14  1  0
 14 15  1  0
 11 16  1  0
 16 17  2  0
  4 18  1  0
 18 19  2  0
 19 20  1  0
 20 21  2  0
 21 22  1  0
 22 23  2  0
 17  8  1  0
 23 18  1  0
M  END
>  <molecule_chembl_id>  (1032) 
CHEMBL191091

>  <canonical_smiles>  (1032) 
CC(C)C(C(=O)Nc1ccc(C(=O)NO)cc1)c1ccccc1

>  <pchembl_value_mean>  (1032) 
7.36

>  <document_chembl_id>  (1032) 
CHEMBL4602725

$$$$

     RDKit          2D

 33 36  0  0  0  0  0  0  0  0999 V2000
   -7.5000   -5.1962    0.0000 O   0  0  0  0  0  0  0  0  0  0  0  0
   -6.0000   -5.1962    0.0000 C   0  0  0  0  0  0  0  0  0  0  0  0
   -5.2500   -6.4952    0.0000 N   0  0  0  0  0  0  0  0  0  0  0  0
   -6.0000   -7.7942    0.0000 O   0  0  0  0  0  0  0  0  0  0  0  0
   -5.2500   -3.8971    0.0000 C   0  0  0  0  0  0  0  0  0  0  0  0
   -3.7500   -3.8971    0.0000 C   0  0  0  0  0  0  0  0  0  0  0  0
   -3.0000   -2.5981    0.0000 N   0  0  0  0  0  0  0  0  0  0  0  0
   -3.7500   -1.2990    0.0000 C   0  0  0  0  0  0  0  0  0  0  0  0
   -3.0000    0.0000    0.0000 N   0  0  0  0  0  0  0  0  0  0  0  0
   -3.7500    1.2990    0.0000 C   0  0  0  0  0  0  0  0  0  0  0  0
   -2.3405    1.8121    0.0000 C   0  0  0  0  0  0  0  0  0  0  0  0
   -1.1914    0.8479    0.0000 C   0  0  0  0  0  0  0  0  0  0  0  0
    0.2181    1.3609    0.0000 C   0  0  0  0  0  0  0  0  0  0  0  0
    0.4786    2.8381    0.0000 C   0  0  0  0  0  0  0  0  0  0  0  0
   -0.6704    3.8023    0.0000 C   0  0  0  0  0  0  0  0  0  0  0  0
   -2.0800    3.2893    0.0000 C   0  0  0  0  0  0  0  0  0  0  0  0
   -4.8991    0.3349    0.0000 C   0  0  0  0  0  0  0  0  0  0  0  0
   -6.3086    0.8479    0.0000 C   0  0  0  0  0  0  0  0  0  0  0  0
   -6.5691    2.3251    0.0000 N   0  0  0  0  0  0  0  0  0  0  0  0
   -7.9786    2.8381    0.0000 C   0  0  0  0  0  0  0  0  0  0  0  0
   -9.1277    1.8739    0.0000 O   0  0  0  0  0  0  0  0  0  0  0  0
   -8.2391    4.3153    0.0000 N   0  0  0  0  0  0  0  0  0  0  0  0
   -9.6486    4.8284    0.0000 C   0  0  0  0  0  0  0  0  0  0  0  0
   -9.9091    6.3056    0.0000 C   0  0  0  0  0  0  0  0  0  0  0  0
  -11.3186    6.8186    0.0000 C   0  0  0  0  0  0  0  0  0  0  0  0
  -12.4677    5.8544    0.0000 C   0  0  0  0  0  0  0  0  0  0  0  0
  -13.8772    6.3675    0.0000 F   0  0  0  0  0  0  0  0  0  0  0  0
  -12.2072    4.3772    0.0000 C   0  0  0  0  0  0  0  0  0  0  0  0
  -10.7977    3.8642    0.0000 C   0  0  0  0  0  0  0  0  0  0  0  0
   -5.4200    3.2893    0.0000 C   0  0  0  0  0  0  0  0  0  0  0  0
   -4.0105    2.7762    0.0000 C   0  0  0  0  0  0  0  0  0  0  0  0
   -5.2500   -1.2990    0.0000 N   0  0  0  0  0  0  0  0  0  0  0  0
   -6.0000   -2.5981    0.0000 C   0  0  0  0  0  0  0  0  0  0  0  0
  1  2  2  0
  2  3  1  0
  3  4  1  0
  2  5  1  0
  5  6  2  0
  6  7  1  0
  7  8  2  0
  8  9  1  0
  9 10  1  0
 10 11  1  0
 11 12  2  0
 12 13  1  0
 13 14  2  0
 14 15  1  0
 15 16  2  0
 10 17  1  0
 17 18  1  0
 18 19  1  0
 19 20  1  0
 20 21  2  0
 20 22  1  0
 22 23  1  0
 23 24  2  0
 24 25  1  0
 25 26  2  0
 26 27  1  0
 26 28  1  0
 28 29  2  0
 19 30  1  0
 30 31  1  0
  8 32  1  0
 32 33  2  0
 33  5  1  0
 31 10  1  0
 16 11  1  0
 29 23  1  0
M  END
>  <molecule_chembl_id>  (1033) 
CHEMBL3961733

>  <canonical_smiles>  (1033) 
O=C(NO)c1cnc(NC2(c3ccccc3)CCN(C(=O)Nc3ccc(F)cc3)CC2)nc1

>  <pchembl_value_mean>  (1033) 
7.37

>  <document_chembl_id>  (1033) 
CHEMBL3886590

$$$$

     RDKit          2D

 31 33  0  0  0  0  0  0  0  0999 V2000
   12.7500   -3.8971    0.0000 O   0  0  0  0  0  0  0  0  0  0  0  0
   12.0000   -5.1962    0.0000 C   0  0  0  0  0  0  0  0  0  0  0  0
   10.5000   -5.1962    0.0000 C   0  0  0  0  0  0  0  0  0  0  0  0
    9.7500   -3.8971    0.0000 C   0  0  0  0  0  0  0  0  0  0  0  0
    8.2500   -3.8971    0.0000 C   0  0  0  0  0  0  0  0  0  0  0  0
    7.5000   -2.5981    0.0000 C   0  0  0  0  0  0  0  0  0  0  0  0
    6.0000   -2.5981    0.0000 C   0  0  0  0  0  0  0  0  0  0  0  0
    5.2500   -1.2990    0.0000 C   0  0  0  0  0  0  0  0  0  0  0  0
    3.7500   -1.2990    0.0000 C   0  0  0  0  0  0  0  0  0  0  0  0
    3.0000   -2.5981    0.0000 O   0  0  0  0  0  0  0  0  0  0  0  0
    3.0000    0.0000    0.0000 N   0  0  0  0  0  0  0  0  0  0  0  0
    1.5000    0.0000    0.0000 C   0  0  0  0  0  0  0  0  0  0  0  0
    0.7500   -1.2990    0.0000 C   0  0  0  0  0  0  0  0  0  0  0  0
   -0.7500   -1.2990    0.0000 C   0  0  0  0  0  0  0  0  0  0  0  0
   -1.5000    0.0000    0.0000 C   0  0  0  0  0  0  0  0  0  0  0  0
   -0.7500    1.2990    0.0000 C   0  0  0  0  0  0  0  0  0  0  0  0
   -1.5000    2.5981    0.0000 C   0  0  0  0  0  0  0  0  0  0  0  0
   -2.9918    2.7549    0.0000 C   0  0  0  0  0  0  0  0  0  0  0  0
   -3.3037    4.2221    0.0000 N   0  0  0  0  0  0  0  0  0  0  0  0
   -4.6740    4.8322    0.0000 C   0  0  0  0  0  0  0  0  0  0  0  0
   -4.8308    6.3240    0.0000 C   0  0  0  0  0  0  0  0  0  0  0  0
   -3.6172    7.2057    0.0000 C   0  0  0  0  0  0  0  0  0  0  0  0
   -3.7740    8.6974    0.0000 C   0  0  0  0  0  0  0  0  0  0  0  0
   -5.1443    9.3075    0.0000 C   0  0  0  0  0  0  0  0  0  0  0  0
   -6.3579    8.4259    0.0000 C   0  0  0  0  0  0  0  0  0  0  0  0
   -6.2011    6.9341    0.0000 C   0  0  0  0  0  0  0  0  0  0  0  0
   -2.0046    4.9721    0.0000 N   0  0  0  0  0  0  0  0  0  0  0  0
   -0.8899    3.9684    0.0000 N   0  0  0  0  0  0  0  0  0  0  0  0
    0.7500    1.2990    0.0000 C   0  0  0  0  0  0  0  0  0  0  0  0
   12.7500   -6.4952    0.0000 N   0  0  0  0  0  0  0  0  0  0  0  0
   14.2500   -6.4952    0.0000 O   0  0  0  0  0  0  0  0  0  0  0  0
  1  2  2  0
  2  3  1  0
  3  4  1  0
  4  5  1  0
  5  6  1  0
  6  7  1  0
  7  8  1  0
  8  9  1  0
  9 10  2  0
  9 11  1  0
 11 12  1  0
 12 13  2  0
 13 14  1  0
 14 15  2  0
 15 16  1  0
 16 17  1  0
 17 18  2  0
 18 19  1  0
 19 20  1  0
 20 21  1  0
 21 22  2  0
 22 23  1  0
 23 24  2  0
 24 25  1  0
 25 26  2  0
 19 27  1  0
 27 28  2  0
 16 29  2  0
  2 30  1  0
 30 31  1  0
 29 12  1  0
 28 17  1  0
 26 21  1  0
M  END
>  <molecule_chembl_id>  (1034) 
CHEMBL483693

>  <canonical_smiles>  (1034) 
O=C(CCCCCCC(=O)Nc1cccc(-c2cn(Cc3ccccc3)nn2)c1)NO

>  <pchembl_value_mean>  (1034) 
7.37

>  <document_chembl_id>  (1034) 
CHEMBL1150413

$$$$

     RDKit          2D

 39 42  0  0  0  0  0  0  0  0999 V2000
   -7.5000   -5.1962    0.0000 C   0  0  0  0  0  0  0  0  0  0  0  0
   -6.0000   -5.1962    0.0000 C   0  0  0  0  0  0  0  0  0  0  0  0
   -5.2500   -3.8971    0.0000 C   0  0  0  0  0  0  0  0  0  0  0  0
   -6.0000   -2.5981    0.0000 O   0  0  0  0  0  0  0  0  0  0  0  0
   -3.7500   -3.8971    0.0000 N   0  0  0  0  0  0  0  0  0  0  0  0
   -3.0000   -2.5981    0.0000 C   0  0  0  0  0  0  0  0  0  0  0  0
   -1.5000   -2.5981    0.0000 C   0  0  0  0  0  0  0  0  0  0  0  0
   -0.7500   -1.2990    0.0000 C   0  0  0  0  0  0  0  0  0  0  0  0
    0.7500   -1.2990    0.0000 C   0  0  0  0  0  0  0  0  0  0  0  0
    1.5000   -2.5981    0.0000 N   0  0  0  0  0  0  0  0  0  0  0  0
    3.0000   -2.5981    0.0000 C   0  0  0  0  0  0  0  0  0  0  0  0
    3.7500   -3.8971    0.0000 C   0  0  0  0  0  0  0  0  0  0  0  0
    5.2500   -3.8971    0.0000 C   0  0  0  0  0  0  0  0  0  0  0  0
    6.0000   -2.5981    0.0000 C   0  0  0  0  0  0  0  0  0  0  0  0
    5.2500   -1.2990    0.0000 C   0  0  0  0  0  0  0  0  0  0  0  0
    6.0000   -0.0000    0.0000 Cl  0  0  0  0  0  0  0  0  0  0  0  0
    3.7500   -1.2990    0.0000 C   0  0  0  0  0  0  0  0  0  0  0  0
    3.0000   -0.0000    0.0000 F   0  0  0  0  0  0  0  0  0  0  0  0
    1.5000    0.0000    0.0000 N   0  0  0  0  0  0  0  0  0  0  0  0
    0.7500    1.2990    0.0000 C   0  0  0  0  0  0  0  0  0  0  0  0
   -0.7500    1.2990    0.0000 N   0  0  0  0  0  0  0  0  0  0  0  0
   -1.5000    0.0000    0.0000 C   0  0  0  0  0  0  0  0  0  0  0  0
   -3.0000    0.0000    0.0000 C   0  0  0  0  0  0  0  0  0  0  0  0
   -3.7500   -1.2990    0.0000 C   0  0  0  0  0  0  0  0  0  0  0  0
   -5.2500   -1.2990    0.0000 O   0  0  0  0  0  0  0  0  0  0  0  0
   -6.0000    0.0000    0.0000 C   0  0  0  0  0  0  0  0  0  0  0  0
   -7.5000    0.0000    0.0000 C   0  0  0  0  0  0  0  0  0  0  0  0
   -8.3817   -1.2135    0.0000 C   0  0  0  0  0  0  0  0  0  0  0  0
   -9.8083   -0.7500    0.0000 N   0  0  0  0  0  0  0  0  0  0  0  0
  -11.0218   -1.6317    0.0000 C   0  0  0  0  0  0  0  0  0  0  0  0
  -12.3921   -1.0216    0.0000 C   0  0  0  0  0  0  0  0  0  0  0  0
  -13.6056   -1.9033    0.0000 C   0  0  0  0  0  0  0  0  0  0  0  0
  -14.9760   -1.2931    0.0000 C   0  0  0  0  0  0  0  0  0  0  0  0
  -16.1895   -2.1748    0.0000 C   0  0  0  0  0  0  0  0  0  0  0  0
  -16.0327   -3.6666    0.0000 O   0  0  0  0  0  0  0  0  0  0  0  0
  -17.5598   -1.5647    0.0000 N   0  0  0  0  0  0  0  0  0  0  0  0
  -18.7733   -2.4464    0.0000 O   0  0  0  0  0  0  0  0  0  0  0  0
   -9.8083    0.7500    0.0000 N   0  0  0  0  0  0  0  0  0  0  0  0
   -8.3817    1.2135    0.0000 N   0  0  0  0  0  0  0  0  0  0  0  0
  1  2  2  0
  2  3  1  0
  3  4  2  0
  3  5  1  0
  5  6  1  0
  6  7  2  0
  7  8  1  0
  8  9  2  0
  9 10  1  0
 10 11  1  0
 11 12  2  0
 12 13  1  0
 13 14  2  0
 14 15  1  0
 15 16  1  0
 15 17  2  0
 17 18  1  0
  9 19  1  0
 19 20  2  0
 20 21  1  0
 21 22  2  0
 22 23  1  0
 23 24  2  0
 24 25  1  0
 25 26  1  0
 26 27  1  0
 27 28  2  0
 28 29  1  0
 29 30  1  0
 30 31  1  0
 31 32  1  0
 32 33  1  0
 33 34  1  0
 34 35  2  0
 34 36  1  0
 36 37  1  0
 29 38  1  0
 38 39  2  0
 24  6  1  0
 39 27  1  0
 22  8  1  0
 17 11  1  0
M  END
>  <molecule_chembl_id>  (1035) 
CHEMBL4783641

>  <canonical_smiles>  (1035) 
C=CC(=O)Nc1cc2c(Nc3cccc(Cl)c3F)ncnc2cc1OCc1cn(CCCCC(=O)NO)nn1

>  <pchembl_value_mean>  (1035) 
7.37

>  <document_chembl_id>  (1035) 
CHEMBL4732162

$$$$

     RDKit          2D

 27 29  0  0  0  0  0  0  0  0999 V2000
  -15.0000   -2.5981    0.0000 C   0  0  0  0  0  0  0  0  0  0  0  0
  -14.2500   -3.8971    0.0000 C   0  0  0  0  0  0  0  0  0  0  0  0
  -12.7500   -3.8971    0.0000 C   0  0  0  0  0  0  0  0  0  0  0  0
  -12.0000   -5.1962    0.0000 N   0  0  0  0  0  0  0  0  0  0  0  0
  -10.5000   -5.1962    0.0000 N   0  0  0  0  0  0  0  0  0  0  0  0
   -9.7500   -6.4952    0.0000 C   0  0  0  0  0  0  0  0  0  0  0  0
  -10.5000   -7.7942    0.0000 O   0  0  0  0  0  0  0  0  0  0  0  0
   -8.2500   -6.4952    0.0000 C   0  0  0  0  0  0  0  0  0  0  0  0
   -7.5000   -5.1962    0.0000 C   0  0  0  0  0  0  0  0  0  0  0  0
   -6.0000   -5.1962    0.0000 C   0  0  0  0  0  0  0  0  0  0  0  0
   -5.2500   -6.4952    0.0000 C   0  0  0  0  0  0  0  0  0  0  0  0
   -3.7500   -6.4952    0.0000 C   0  0  0  0  0  0  0  0  0  0  0  0
   -3.0000   -5.1962    0.0000 N   0  0  0  0  0  0  0  0  0  0  0  0
   -1.5000   -5.1962    0.0000 C   0  0  0  0  0  0  0  0  0  0  0  0
   -0.7500   -6.4952    0.0000 O   0  0  0  0  0  0  0  0  0  0  0  0
   -0.7500   -3.8971    0.0000 C   0  0  0  0  0  0  0  0  0  0  0  0
    0.7500   -3.8971    0.0000 C   0  0  0  0  0  0  0  0  0  0  0  0
    1.5000   -2.5981    0.0000 C   0  0  0  0  0  0  0  0  0  0  0  0
    0.7500   -1.2990    0.0000 C   0  0  0  0  0  0  0  0  0  0  0  0
    1.5000    0.0000    0.0000 C   0  0  0  0  0  0  0  0  0  0  0  0
    0.7500    1.2990    0.0000 N   0  0  0  0  0  0  0  0  0  0  0  0
   -0.7500    1.2990    0.0000 C   0  0  0  0  0  0  0  0  0  0  0  0
   -1.5000    0.0000    0.0000 C   0  0  0  0  0  0  0  0  0  0  0  0
   -0.7500   -1.2990    0.0000 C   0  0  0  0  0  0  0  0  0  0  0  0
   -1.5000   -2.5981    0.0000 N   0  0  0  0  0  0  0  0  0  0  0  0
   -6.0000   -7.7942    0.0000 C   0  0  0  0  0  0  0  0  0  0  0  0
   -7.5000   -7.7942    0.0000 C   0  0  0  0  0  0  0  0  0  0  0  0
  1  2  1  0
  2  3  1  0
  3  4  1  0
  4  5  1  0
  5  6  1  0
  6  7  2  0
  6  8  1  0
  8  9  2  0
  9 10  1  0
 10 11  2  0
 11 12  1  0
 12 13  1  0
 13 14  1  0
 14 15  2  0
 14 16  1  0
 16 17  2  0
 17 18  1  0
 18 19  2  0
 19 20  1  0
 20 21  2  0
 21 22  1  0
 22 23  2  0
 23 24  1  0
 24 25  2  0
 11 26  1  0
 26 27  2  0
 27  8  1  0
 25 16  1  0
 24 19  1  0
M  END
>  <molecule_chembl_id>  (1036) 
CHEMBL5074837

>  <canonical_smiles>  (1036) 
CCCNNC(=O)c1ccc(CNC(=O)c2ccc3cnccc3n2)cc1

>  <pchembl_value_mean>  (1036) 
7.38

>  <document_chembl_id>  (1036) 
CHEMBL5042504

$$$$

     RDKit          2D

 26 28  0  0  0  0  0  0  0  0999 V2000
  -12.9904   -9.6073    0.0000 C   0  0  0  0  0  0  0  0  0  0  0  0
  -11.6913  -10.3573    0.0000 C   0  0  0  0  0  0  0  0  0  0  0  0
  -10.3923   -9.6073    0.0000 C   0  0  0  0  0  0  0  0  0  0  0  0
   -9.0933  -10.3573    0.0000 N   0  0  0  0  0  0  0  0  0  0  0  0
   -7.7942   -9.6073    0.0000 N   0  0  0  0  0  0  0  0  0  0  0  0
   -6.4952  -10.3573    0.0000 C   0  0  0  0  0  0  0  0  0  0  0  0
   -6.4952  -11.8573    0.0000 O   0  0  0  0  0  0  0  0  0  0  0  0
   -5.1962   -9.6073    0.0000 C   0  0  0  0  0  0  0  0  0  0  0  0
   -5.1962   -8.1073    0.0000 C   0  0  0  0  0  0  0  0  0  0  0  0
   -3.8971   -7.3573    0.0000 C   0  0  0  0  0  0  0  0  0  0  0  0
   -2.5981   -8.1073    0.0000 C   0  0  0  0  0  0  0  0  0  0  0  0
   -1.2990   -7.3573    0.0000 C   0  0  0  0  0  0  0  0  0  0  0  0
   -1.2990   -5.8573    0.0000 N   0  0  0  0  0  0  0  0  0  0  0  0
   -0.0000   -5.1073    0.0000 C   0  0  0  0  0  0  0  0  0  0  0  0
    1.2990   -5.8573    0.0000 O   0  0  0  0  0  0  0  0  0  0  0  0
   -0.0000   -3.6073    0.0000 C   0  0  0  0  0  0  0  0  0  0  0  0
    1.2135   -2.7256    0.0000 N   0  0  0  0  0  0  0  0  0  0  0  0
    0.7500   -1.2990    0.0000 C   0  0  0  0  0  0  0  0  0  0  0  0
    1.5000    0.0000    0.0000 C   0  0  0  0  0  0  0  0  0  0  0  0
    0.7500    1.2990    0.0000 C   0  0  0  0  0  0  0  0  0  0  0  0
   -0.7500    1.2990    0.0000 C   0  0  0  0  0  0  0  0  0  0  0  0
   -1.5000    0.0000    0.0000 C   0  0  0  0  0  0  0  0  0  0  0  0
   -0.7500   -1.2990    0.0000 C   0  0  0  0  0  0  0  0  0  0  0  0
   -1.2135   -2.7256    0.0000 S   0  0  0  0  0  0  0  0  0  0  0  0
   -2.5981   -9.6073    0.0000 C   0  0  0  0  0  0  0  0  0  0  0  0
   -3.8971  -10.3573    0.0000 C   0  0  0  0  0  0  0  0  0  0  0  0
  1  2  1  0
  2  3  1  0
  3  4  1  0
  4  5  1  0
  5  6  1  0
  6  7  2  0
  6  8  1  0
  8  9  2  0
  9 10  1  0
 10 11  2  0
 11 12  1  0
 12 13  1  0
 13 14  1  0
 14 15  2  0
 14 16  1  0
 16 17  2  0
 17 18  1  0
 18 19  2  0
 19 20  1  0
 20 21  2  0
 21 22  1  0
 22 23  2  0
 23 24  1  0
 11 25  1  0
 25 26  2  0
 26  8  1  0
 24 16  1  0
 23 18  1  0
M  END
>  <molecule_chembl_id>  (1037) 
CHEMBL5084847

>  <canonical_smiles>  (1037) 
CCCNNC(=O)c1ccc(CNC(=O)c2nc3ccccc3s2)cc1

>  <pchembl_value_mean>  (1037) 
7.38

>  <document_chembl_id>  (1037) 
CHEMBL5042504

$$$$

     RDKit          2D

 42 45  0  0  0  0  0  0  0  0999 V2000
    3.0000  -15.5885    0.0000 O   0  0  0  0  0  0  0  0  0  0  0  0
    3.7500  -14.2894    0.0000 C   0  0  0  0  0  0  0  0  0  0  0  0
    3.0000  -12.9904    0.0000 N   0  0  0  0  0  0  0  0  0  0  0  0
    1.5000  -12.9904    0.0000 C   0  0  0  0  0  0  0  0  0  0  0  0
    0.7500  -11.6913    0.0000 C   0  0  0  0  0  0  0  0  0  0  0  0
    1.5000  -10.3923    0.0000 C   0  0  0  0  0  0  0  0  0  0  0  0
    0.7500   -9.0933    0.0000 C   0  0  0  0  0  0  0  0  0  0  0  0
    1.5000   -7.7942    0.0000 C   0  0  0  0  0  0  0  0  0  0  0  0
    0.7500   -6.4952    0.0000 C   0  0  0  0  0  0  0  0  0  0  0  0
    1.5000   -5.1962    0.0000 C   0  0  0  0  0  0  0  0  0  0  0  0
    0.7500   -3.8971    0.0000 S   0  0  0  0  0  0  0  0  0  0  0  0
    1.5000   -2.5981    0.0000 S   0  0  0  0  0  0  0  0  0  0  0  0
    0.7500   -1.2990    0.0000 C   0  0  0  0  0  0  0  0  0  0  0  0
    1.5000    0.0000    0.0000 C   0  0  0  0  0  0  0  0  0  0  0  0
    0.7500    1.2990    0.0000 C   0  0  0  0  0  0  0  0  0  0  0  0
   -0.7500    1.2990    0.0000 C   0  0  0  0  0  0  0  0  0  0  0  0
   -1.5000    0.0000    0.0000 C   0  0  0  0  0  0  0  0  0  0  0  0
   -0.7500   -1.2990    0.0000 N   0  0  0  0  0  0  0  0  0  0  0  0
    0.7500  -14.2894    0.0000 C   0  0  0  0  0  0  0  0  0  0  0  0
   -0.7500  -14.2894    0.0000 O   0  0  0  0  0  0  0  0  0  0  0  0
    1.5000  -15.5885    0.0000 O   0  0  0  0  0  0  0  0  0  0  0  0
    0.7500  -16.8875    0.0000 C   0  0  0  0  0  0  0  0  0  0  0  0
    1.5000  -18.1865    0.0000 C   0  0  0  0  0  0  0  0  0  0  0  0
    0.7500  -19.4856    0.0000 C   0  0  0  0  0  0  0  0  0  0  0  0
    1.5000  -20.7846    0.0000 C   0  0  0  0  0  0  0  0  0  0  0  0
    3.0000  -20.7846    0.0000 C   0  0  0  0  0  0  0  0  0  0  0  0
    3.7500  -22.0836    0.0000 C   0  0  0  0  0  0  0  0  0  0  0  0
    3.0000  -23.3827    0.0000 C   0  0  0  0  0  0  0  0  0  0  0  0
    3.7500  -24.6817    0.0000 C   0  0  0  0  0  0  0  0  0  0  0  0
    5.2500  -24.6817    0.0000 C   0  0  0  0  0  0  0  0  0  0  0  0
    6.0000  -23.3827    0.0000 C   0  0  0  0  0  0  0  0  0  0  0  0
    5.2500  -22.0836    0.0000 C   0  0  0  0  0  0  0  0  0  0  0  0
    3.7500  -19.4856    0.0000 C   0  0  0  0  0  0  0  0  0  0  0  0
    3.0000  -18.1865    0.0000 C   0  0  0  0  0  0  0  0  0  0  0  0
    5.2500  -14.2894    0.0000 O   0  0  0  0  0  0  0  0  0  0  0  0
    6.0000  -15.5885    0.0000 C   0  0  0  0  0  0  0  0  0  0  0  0
    7.5000  -15.5885    0.0000 C   0  0  0  0  0  0  0  0  0  0  0  0
    8.2500  -16.8875    0.0000 C   0  0  0  0  0  0  0  0  0  0  0  0
    9.7500  -16.8875    0.0000 C   0  0  0  0  0  0  0  0  0  0  0  0
   10.5000  -15.5885    0.0000 C   0  0  0  0  0  0  0  0  0  0  0  0
    9.7500  -14.2894    0.0000 C   0  0  0  0  0  0  0  0  0  0  0  0
    8.2500  -14.2894    0.0000 C   0  0  0  0  0  0  0  0  0  0  0  0
  1  2  2  0
  2  3  1  0
  3  4  1  0
  4  5  1  0
  5  6  1  0
  6  7  1  0
  7  8  1  0
  8  9  1  0
  9 10  1  0
 10 11  1  0
 11 12  1  0
 12 13  1  0
 13 14  2  0
 14 15  1  0
 15 16  2  0
 16 17  1  0
 17 18  2  0
  4 19  1  0
 19 20  2  0
 19 21  1  0
 21 22  1  0
 22 23  1  0
 23 24  2  0
 24 25  1  0
 25 26  2  0
 26 27  1  0
 27 28  2  0
 28 29  1  0
 29 30  2  0
 30 31  1  0
 31 32  2  0
 26 33  1  0
 33 34  2  0
  2 35  1  0
 35 36  1  0
 36 37  1  0
 37 38  2  0
 38 39  1  0
 39 40  2  0
 40 41  1  0
 41 42  2  0
 18 13  1  0
 34 23  1  0
 42 37  1  0
 32 27  1  0
M  END
>  <molecule_chembl_id>  (1038) 
CHEMBL2021937

>  <canonical_smiles>  (1038) 
O=C(NC(CCCCCCSSc1ccccn1)C(=O)OCc1ccc(-c2ccccc2)cc1)OCc1ccccc1

>  <pchembl_value_mean>  (1038) 
7.39

>  <document_chembl_id>  (1038) 
CHEMBL2021837

$$$$

     RDKit          2D

 41 45  0  0  0  0  0  0  0  0999 V2000
   10.7824  -15.8378    0.0000 C   0  0  0  0  0  0  0  0  0  0  0  0
    9.4121  -15.2277    0.0000 C   0  0  0  0  0  0  0  0  0  0  0  0
    9.2553  -13.7359    0.0000 C   0  0  0  0  0  0  0  0  0  0  0  0
   10.4688  -12.8543    0.0000 O   0  0  0  0  0  0  0  0  0  0  0  0
    7.8850  -13.1258    0.0000 C   0  0  0  0  0  0  0  0  0  0  0  0
    7.7282  -11.6340    0.0000 C   0  0  0  0  0  0  0  0  0  0  0  0
    6.3579  -11.0239    0.0000 C   0  0  0  0  0  0  0  0  0  0  0  0
    6.2011   -9.5322    0.0000 C   0  0  0  0  0  0  0  0  0  0  0  0
    4.8308   -8.9221    0.0000 C   0  0  0  0  0  0  0  0  0  0  0  0
    4.6740   -7.4303    0.0000 C   0  0  0  0  0  0  0  0  0  0  0  0
    5.8875   -6.5486    0.0000 N   0  0  0  0  0  0  0  0  0  0  0  0
    7.2578   -7.1587    0.0000 C   0  0  0  0  0  0  0  0  0  0  0  0
    7.4146   -8.6505    0.0000 O   0  0  0  0  0  0  0  0  0  0  0  0
    8.4713   -6.2770    0.0000 C   0  0  0  0  0  0  0  0  0  0  0  0
    9.0814   -4.9067    0.0000 C   0  0  0  0  0  0  0  0  0  0  0  0
    9.9631   -6.1202    0.0000 C   0  0  0  0  0  0  0  0  0  0  0  0
   10.1199   -7.6120    0.0000 C   0  0  0  0  0  0  0  0  0  0  0  0
   11.4902   -8.2221    0.0000 C   0  0  0  0  0  0  0  0  0  0  0  0
   12.7038   -7.3404    0.0000 N   0  0  0  0  0  0  0  0  0  0  0  0
   14.0741   -7.9505    0.0000 C   0  0  0  0  0  0  0  0  0  0  0  0
   14.2309   -9.4423    0.0000 C   0  0  0  0  0  0  0  0  0  0  0  0
   15.2876   -7.0689    0.0000 O   0  0  0  0  0  0  0  0  0  0  0  0
   12.5470   -5.8487    0.0000 C   0  0  0  0  0  0  0  0  0  0  0  0
   11.1766   -5.2386    0.0000 C   0  0  0  0  0  0  0  0  0  0  0  0
    3.3037   -6.8202    0.0000 C   0  0  0  0  0  0  0  0  0  0  0  0
    2.0046   -7.5702    0.0000 N   0  0  0  0  0  0  0  0  0  0  0  0
    0.8899   -6.5665    0.0000 C   0  0  0  0  0  0  0  0  0  0  0  0
    1.5000   -5.1962    0.0000 C   0  0  0  0  0  0  0  0  0  0  0  0
    0.7500   -3.8971    0.0000 C   0  0  0  0  0  0  0  0  0  0  0  0
    1.5000   -2.5981    0.0000 C   0  0  0  0  0  0  0  0  0  0  0  0
    0.7500   -1.2990    0.0000 C   0  0  0  0  0  0  0  0  0  0  0  0
    1.5000    0.0000    0.0000 C   0  0  0  0  0  0  0  0  0  0  0  0
    0.7500    1.2990    0.0000 C   0  0  0  0  0  0  0  0  0  0  0  0
   -0.7500    1.2990    0.0000 C   0  0  0  0  0  0  0  0  0  0  0  0
   -1.5000    0.0000    0.0000 C   0  0  0  0  0  0  0  0  0  0  0  0
   -0.7500   -1.2990    0.0000 C   0  0  0  0  0  0  0  0  0  0  0  0
   -1.5000   -2.5981    0.0000 N   0  0  0  0  0  0  0  0  0  0  0  0
   -0.7500   -3.8971    0.0000 C   0  0  0  0  0  0  0  0  0  0  0  0
   -1.5000   -5.1962    0.0000 O   0  0  0  0  0  0  0  0  0  0  0  0
   -3.0000   -5.1962    0.0000 C   0  0  0  0  0  0  0  0  0  0  0  0
    2.9918   -5.3529    0.0000 N   0  0  0  0  0  0  0  0  0  0  0  0
  1  2  1  0
  2  3  1  0
  3  4  2  0
  3  5  1  0
  5  6  1  0
  6  7  1  0
  7  8  1  0
  8  9  1  0
  9 10  1  0
 10 11  1  0
 11 12  1  0
 12 13  2  0
 12 14  1  0
 14 15  1  0
 15 16  1  0
 16 17  1  0
 17 18  1  0
 18 19  1  0
 19 20  1  0
 20 21  1  0
 20 22  2  0
 19 23  1  0
 23 24  1  0
 10 25  1  0
 25 26  2  0
 26 27  1  0
 27 28  2  0
 28 29  1  0
 29 30  2  0
 30 31  1  0
 31 32  2  0
 32 33  1  0
 33 34  2  0
 34 35  1  0
 35 36  2  0
 36 37  1  0
 37 38  2  0
 38 39  1  0
 39 40  1  0
 28 41  1  0
 16 14  1  0
 41 25  1  0
 24 16  1  0
 38 29  1  0
 36 31  1  0
M  END
>  <molecule_chembl_id>  (1039) 
CHEMBL4636123

>  <canonical_smiles>  (1039) 
CCC(=O)CCCCCC(NC(=O)C1CC12CCN(C(C)=O)CC2)c1ncc(-c2cc3ccccc3nc2OC)[nH]1

>  <pchembl_value_mean>  (1039) 
7.39

>  <document_chembl_id>  (1039) 
CHEMBL4622849

$$$$

     RDKit          2D

 40 44  0  0  0  0  0  0  0  0999 V2000
    7.7282  -11.6340    0.0000 C   0  0  0  0  0  0  0  0  0  0  0  0
    6.3579  -11.0239    0.0000 C   0  0  0  0  0  0  0  0  0  0  0  0
    6.2011   -9.5322    0.0000 C   0  0  0  0  0  0  0  0  0  0  0  0
    4.8308   -8.9221    0.0000 C   0  0  0  0  0  0  0  0  0  0  0  0
    4.6740   -7.4303    0.0000 C   0  0  0  0  0  0  0  0  0  0  0  0
    5.8875   -6.5486    0.0000 N   0  0  0  0  0  0  0  0  0  0  0  0
    7.2578   -7.1587    0.0000 C   0  0  0  0  0  0  0  0  0  0  0  0
    7.4146   -8.6505    0.0000 O   0  0  0  0  0  0  0  0  0  0  0  0
    8.4713   -6.2770    0.0000 C   0  0  0  0  0  0  0  0  0  0  0  0
    8.3145   -4.7852    0.0000 C   0  0  0  0  0  0  0  0  0  0  0  0
    6.9442   -4.1751    0.0000 N   0  0  0  0  0  0  0  0  0  0  0  0
    9.8417   -6.8871    0.0000 C   0  0  0  0  0  0  0  0  0  0  0  0
   10.1535   -8.3543    0.0000 C   0  0  0  0  0  0  0  0  0  0  0  0
    9.1498   -9.4691    0.0000 C   0  0  0  0  0  0  0  0  0  0  0  0
   11.6453   -8.5111    0.0000 N   0  0  0  0  0  0  0  0  0  0  0  0
   12.2554   -7.1408    0.0000 C   0  0  0  0  0  0  0  0  0  0  0  0
   13.6820   -6.6773    0.0000 C   0  0  0  0  0  0  0  0  0  0  0  0
   13.9939   -5.2101    0.0000 C   0  0  0  0  0  0  0  0  0  0  0  0
   12.8791   -4.2064    0.0000 C   0  0  0  0  0  0  0  0  0  0  0  0
   13.1910   -2.7392    0.0000 O   0  0  0  0  0  0  0  0  0  0  0  0
   14.6176   -2.2756    0.0000 C   0  0  0  0  0  0  0  0  0  0  0  0
   11.4526   -4.6699    0.0000 C   0  0  0  0  0  0  0  0  0  0  0  0
   11.1407   -6.1371    0.0000 C   0  0  0  0  0  0  0  0  0  0  0  0
    3.3037   -6.8202    0.0000 C   0  0  0  0  0  0  0  0  0  0  0  0
    2.0046   -7.5702    0.0000 N   0  0  0  0  0  0  0  0  0  0  0  0
    0.8899   -6.5665    0.0000 C   0  0  0  0  0  0  0  0  0  0  0  0
    1.5000   -5.1962    0.0000 C   0  0  0  0  0  0  0  0  0  0  0  0
    0.7500   -3.8971    0.0000 C   0  0  0  0  0  0  0  0  0  0  0  0
    1.5000   -2.5981    0.0000 C   0  0  0  0  0  0  0  0  0  0  0  0
    0.7500   -1.2990    0.0000 C   0  0  0  0  0  0  0  0  0  0  0  0
    1.5000    0.0000    0.0000 C   0  0  0  0  0  0  0  0  0  0  0  0
    0.7500    1.2990    0.0000 C   0  0  0  0  0  0  0  0  0  0  0  0
   -0.7500    1.2990    0.0000 C   0  0  0  0  0  0  0  0  0  0  0  0
   -1.5000    0.0000    0.0000 C   0  0  0  0  0  0  0  0  0  0  0  0
   -0.7500   -1.2990    0.0000 C   0  0  0  0  0  0  0  0  0  0  0  0
   -1.5000   -2.5981    0.0000 N   0  0  0  0  0  0  0  0  0  0  0  0
   -0.7500   -3.8971    0.0000 C   0  0  0  0  0  0  0  0  0  0  0  0
   -1.5000   -5.1962    0.0000 O   0  0  0  0  0  0  0  0  0  0  0  0
   -3.0000   -5.1962    0.0000 C   0  0  0  0  0  0  0  0  0  0  0  0
    2.9918   -5.3529    0.0000 N   0  0  0  0  0  0  0  0  0  0  0  0
  1  2  1  0
  2  3  1  0
  3  4  1  0
  4  5  1  0
  5  6  1  0
  6  7  1  0
  7  8  2  0
  7  9  1  0
  9 10  1  0
 10 11  1  0
  9 12  1  0
 12 13  2  0
 13 14  1  0
 13 15  1  0
 15 16  1  0
 16 17  2  0
 17 18  1  0
 18 19  2  0
 19 20  1  0
 20 21  1  0
 19 22  1  0
 22 23  2  0
  5 24  1  0
 24 25  2  0
 25 26  1  0
 26 27  2  0
 27 28  1  0
 28 29  2  0
 29 30  1  0
 30 31  2  0
 31 32  1  0
 32 33  2  0
 33 34  1  0
 34 35  2  0
 35 36  1  0
 36 37  2  0
 37 38  1  0
 38 39  1  0
 27 40  1  0
 23 12  1  0
 40 24  1  0
 23 16  1  0
 37 28  1  0
 35 30  1  0
M  END
>  <molecule_chembl_id>  (1040) 
CHEMBL4879154

>  <canonical_smiles>  (1040) 
CCCCC(NC(=O)C(CN)c1c(C)[nH]c2ccc(OC)cc12)c1ncc(-c2cc3ccccc3nc2OC)[nH]1

>  <pchembl_value_mean>  (1040) 
7.39

>  <document_chembl_id>  (1040) 
CHEMBL4814059

$$$$

     RDKit          2D

 23 24  0  0  0  0  0  0  0  0999 V2000
   -9.7500  -11.6913    0.0000 O   0  0  0  0  0  0  0  0  0  0  0  0
  -10.5000  -10.3923    0.0000 C   0  0  0  0  0  0  0  0  0  0  0  0
   -9.7500   -9.0933    0.0000 C   0  0  0  0  0  0  0  0  0  0  0  0
   -8.2500   -9.0933    0.0000 C   0  0  0  0  0  0  0  0  0  0  0  0
   -7.5000   -7.7942    0.0000 C   0  0  0  0  0  0  0  0  0  0  0  0
   -6.0000   -7.7942    0.0000 C   0  0  0  0  0  0  0  0  0  0  0  0
   -5.2500   -6.4952    0.0000 C   0  0  0  0  0  0  0  0  0  0  0  0
   -3.7500   -6.4952    0.0000 O   0  0  0  0  0  0  0  0  0  0  0  0
   -3.0000   -5.1962    0.0000 N   0  0  0  0  0  0  0  0  0  0  0  0
   -1.5000   -5.1962    0.0000 C   0  0  0  0  0  0  0  0  0  0  0  0
   -0.7500   -6.4952    0.0000 O   0  0  0  0  0  0  0  0  0  0  0  0
   -0.7500   -3.8971    0.0000 C   0  0  0  0  0  0  0  0  0  0  0  0
    0.7500   -3.8971    0.0000 C   0  0  0  0  0  0  0  0  0  0  0  0
    1.5000   -2.5981    0.0000 C   0  0  0  0  0  0  0  0  0  0  0  0
    0.7500   -1.2990    0.0000 C   0  0  0  0  0  0  0  0  0  0  0  0
    1.5000    0.0000    0.0000 C   0  0  0  0  0  0  0  0  0  0  0  0
    0.7500    1.2990    0.0000 C   0  0  0  0  0  0  0  0  0  0  0  0
   -0.7500    1.2990    0.0000 C   0  0  0  0  0  0  0  0  0  0  0  0
   -1.5000    0.0000    0.0000 C   0  0  0  0  0  0  0  0  0  0  0  0
   -0.7500   -1.2990    0.0000 C   0  0  0  0  0  0  0  0  0  0  0  0
   -1.5000   -2.5981    0.0000 C   0  0  0  0  0  0  0  0  0  0  0  0
  -12.0000  -10.3923    0.0000 N   0  0  0  0  0  0  0  0  0  0  0  0
  -12.7500  -11.6913    0.0000 O   0  0  0  0  0  0  0  0  0  0  0  0
  1  2  2  0
  2  3  1  0
  3  4  1  0
  4  5  1  0
  5  6  1  0
  6  7  1  0
  7  8  1  0
  8  9  1  0
  9 10  1  0
 10 11  2  0
 10 12  1  0
 12 13  2  0
 13 14  1  0
 14 15  2  0
 15 16  1  0
 16 17  2  0
 17 18  1  0
 18 19  2  0
 19 20  1  0
 20 21  2  0
  2 22  1  0
 22 23  1  0
 21 12  1  0
 20 15  1  0
M  END
>  <molecule_chembl_id>  (1041) 
CHEMBL4876405

>  <canonical_smiles>  (1041) 
O=C(CCCCCONC(=O)c1ccc2ccccc2c1)NO

>  <pchembl_value_mean>  (1041) 
7.39

>  <document_chembl_id>  (1041) 
CHEMBL4823243

$$$$

     RDKit          2D

 24 26  0  0  0  0  0  0  0  0999 V2000
    3.0000    0.0000    0.0000 C   0  0  0  0  0  0  0  0  0  0  0  0
    1.5000    0.0000    0.0000 C   0  0  0  0  0  0  0  0  0  0  0  0
    0.7500   -1.2990    0.0000 C   0  0  0  0  0  0  0  0  0  0  0  0
   -0.7500   -1.2990    0.0000 C   0  0  0  0  0  0  0  0  0  0  0  0
   -1.5000    0.0000    0.0000 C   0  0  0  0  0  0  0  0  0  0  0  0
   -3.0000    0.0000    0.0000 C   0  0  0  0  0  0  0  0  0  0  0  0
   -3.8817   -1.2135    0.0000 C   0  0  0  0  0  0  0  0  0  0  0  0
   -5.3083   -0.7500    0.0000 C   0  0  0  0  0  0  0  0  0  0  0  0
   -6.5218   -1.6317    0.0000 C   0  0  0  0  0  0  0  0  0  0  0  0
   -5.3083    0.7500    0.0000 N   0  0  0  0  0  0  0  0  0  0  0  0
   -6.5218    1.6317    0.0000 C   0  0  0  0  0  0  0  0  0  0  0  0
   -6.3650    3.1235    0.0000 C   0  0  0  0  0  0  0  0  0  0  0  0
   -4.9947    3.7336    0.0000 C   0  0  0  0  0  0  0  0  0  0  0  0
   -4.8379    5.2253    0.0000 C   0  0  0  0  0  0  0  0  0  0  0  0
   -6.0514    6.1070    0.0000 C   0  0  0  0  0  0  0  0  0  0  0  0
   -5.8946    7.5988    0.0000 C   0  0  0  0  0  0  0  0  0  0  0  0
   -7.1081    8.4805    0.0000 O   0  0  0  0  0  0  0  0  0  0  0  0
   -4.5243    8.2089    0.0000 N   0  0  0  0  0  0  0  0  0  0  0  0
   -4.3675    9.7007    0.0000 O   0  0  0  0  0  0  0  0  0  0  0  0
   -7.4217    5.4969    0.0000 C   0  0  0  0  0  0  0  0  0  0  0  0
   -7.5785    4.0051    0.0000 C   0  0  0  0  0  0  0  0  0  0  0  0
   -3.8817    1.2135    0.0000 N   0  0  0  0  0  0  0  0  0  0  0  0
   -0.7500    1.2990    0.0000 C   0  0  0  0  0  0  0  0  0  0  0  0
    0.7500    1.2990    0.0000 C   0  0  0  0  0  0  0  0  0  0  0  0
  1  2  1  0
  2  3  2  0
  3  4  1  0
  4  5  2  0
  5  6  1  0
  6  7  1  0
  7  8  2  0
  8  9  1  0
  8 10  1  0
 10 11  1  0
 11 12  1  0
 12 13  2  0
 13 14  1  0
 14 15  2  0
 15 16  1  0
 16 17  2  0
 16 18  1  0
 18 19  1  0
 15 20  1  0
 20 21  2  0
 10 22  1  0
  5 23  1  0
 23 24  2  0
 24  2  1  0
 22  6  2  0
 21 12  1  0
M  END
>  <molecule_chembl_id>  (1042) 
CHEMBL4229248

>  <canonical_smiles>  (1042) 
Cc1ccc(-c2cc(C)n(Cc3ccc(C(=O)NO)cc3)n2)cc1

>  <pchembl_value_mean>  (1042) 
7.39

>  <document_chembl_id>  (1042) 
CHEMBL4219109

$$$$

     RDKit          2D

 43 46  0  0  0  0  0  0  0  0999 V2000
   11.9343    4.2767    0.0000 C   0  0  0  0  0  0  0  0  0  0  0  0
   10.7068    5.1387    0.0000 C   0  0  0  0  0  0  0  0  0  0  0  0
    9.3464    4.5066    0.0000 C   0  0  0  0  0  0  0  0  0  0  0  0
    9.2137    3.0125    0.0000 O   0  0  0  0  0  0  0  0  0  0  0  0
    8.1189    5.3686    0.0000 C   0  0  0  0  0  0  0  0  0  0  0  0
    6.7586    4.7365    0.0000 C   0  0  0  0  0  0  0  0  0  0  0  0
    5.5310    5.5985    0.0000 C   0  0  0  0  0  0  0  0  0  0  0  0
    4.1707    4.9664    0.0000 C   0  0  0  0  0  0  0  0  0  0  0  0
    2.9431    5.8284    0.0000 C   0  0  0  0  0  0  0  0  0  0  0  0
    1.5828    5.1963    0.0000 C   0  0  0  0  0  0  0  0  0  0  0  0
    1.8710    3.7243    0.0000 N   0  0  0  0  0  0  0  0  0  0  0  0
    1.4421    2.2869    0.0000 C   0  0  0  0  0  0  0  0  0  0  0  0
    2.7350    1.5265    0.0000 O   0  0  0  0  0  0  0  0  0  0  0  0
    0.3943    1.2135    0.0000 C   0  0  0  0  0  0  0  0  0  0  0  0
    1.2760    0.0000    0.0000 C   0  0  0  0  0  0  0  0  0  0  0  0
    0.3943   -1.2135    0.0000 C   0  0  0  0  0  0  0  0  0  0  0  0
   -1.0323   -0.7500    0.0000 C   0  0  0  0  0  0  0  0  0  0  0  0
   -1.0323    0.7500    0.0000 N   0  0  0  0  0  0  0  0  0  0  0  0
   -2.5109    1.0025    0.0000 C   0  0  0  0  0  0  0  0  0  0  0  0
   -3.1099   -0.3727    0.0000 O   0  0  0  0  0  0  0  0  0  0  0  0
   -3.7027    1.9133    0.0000 C   0  0  0  0  0  0  0  0  0  0  0  0
   -4.3348    3.2736    0.0000 C   0  0  0  0  0  0  0  0  0  0  0  0
   -5.8069    2.9854    0.0000 C   0  0  0  0  0  0  0  0  0  0  0  0
   -6.7925    4.1161    0.0000 C   0  0  0  0  0  0  0  0  0  0  0  0
   -8.2646    3.8280    0.0000 C   0  0  0  0  0  0  0  0  0  0  0  0
   -6.3061    5.5351    0.0000 C   0  0  0  0  0  0  0  0  0  0  0  0
   -4.2624    4.7718    0.0000 N   0  0  0  0  0  0  0  0  0  0  0  0
   -3.5019    6.0648    0.0000 C   0  0  0  0  0  0  0  0  0  0  0  0
   -4.5753    7.1126    0.0000 O   0  0  0  0  0  0  0  0  0  0  0  0
   -2.2277    6.8563    0.0000 C   0  0  0  0  0  0  0  0  0  0  0  0
   -2.6913    8.2828    0.0000 C   0  0  0  0  0  0  0  0  0  0  0  0
   -1.6876    9.3976    0.0000 C   0  0  0  0  0  0  0  0  0  0  0  0
   -0.1958    9.2408    0.0000 C   0  0  0  0  0  0  0  0  0  0  0  0
    0.4143   10.6111    0.0000 N   0  0  0  0  0  0  0  0  0  0  0  0
   -0.7004   11.6148    0.0000 C   0  0  0  0  0  0  0  0  0  0  0  0
   -0.7004   13.1148    0.0000 C   0  0  0  0  0  0  0  0  0  0  0  0
   -1.9994   13.8648    0.0000 C   0  0  0  0  0  0  0  0  0  0  0  0
   -3.2985   13.1148    0.0000 C   0  0  0  0  0  0  0  0  0  0  0  0
   -3.2985   11.6148    0.0000 C   0  0  0  0  0  0  0  0  0  0  0  0
   -1.9994   10.8648    0.0000 C   0  0  0  0  0  0  0  0  0  0  0  0
   -0.7317    6.9649    0.0000 N   0  0  0  0  0  0  0  0  0  0  0  0
    0.6435    6.3659    0.0000 C   0  0  0  0  0  0  0  0  0  0  0  0
    1.5543    7.5577    0.0000 O   0  0  0  0  0  0  0  0  0  0  0  0
  1  2  1  0
  2  3  1  0
  3  4  2  0
  3  5  1  0
  5  6  1  0
  6  7  1  0
  7  8  1  0
  8  9  1  0
  9 10  1  0
 10 11  1  0
 11 12  1  0
 12 13  2  0
 12 14  1  0
 14 15  1  0
 15 16  1  0
 16 17  1  0
 17 18  1  0
 18 19  1  0
 19 20  2  0
 19 21  1  0
 21 22  1  0
 22 23  1  0
 23 24  1  0
 24 25  1  0
 24 26  1  0
 22 27  1  0
 27 28  1  0
 28 29  2  0
 28 30  1  0
 30 31  1  0
 31 32  1  0
 32 33  2  0
 33 34  1  0
 34 35  1  0
 35 36  2  0
 36 37  1  0
 37 38  2  0
 38 39  1  0
 39 40  2  0
 30 41  1  0
 41 42  1  0
 42 43  2  0
 42 10  1  0
 18 14  1  0
 40 32  1  0
 40 35  1  0
M  END
>  <molecule_chembl_id>  (1043) 
CHEMBL2012814

>  <canonical_smiles>  (1043) 
CCC(=O)CCCCCC1NC(=O)C2CCCN2C(=O)CC(CC(C)C)NC(=O)C(Cc2c[nH]c3ccccc23)NC1=O

>  <pchembl_value_mean>  (1043) 
7.4

>  <document_chembl_id>  (1043) 
CHEMBL4052703

$$$$

     RDKit          2D

 21 23  0  0  0  0  0  0  0  0999 V2000
    3.0000    0.0000    0.0000 C   0  0  0  0  0  0  0  0  0  0  0  0
    1.5000    0.0000    0.0000 C   0  0  0  0  0  0  0  0  0  0  0  0
    0.7500   -1.2990    0.0000 C   0  0  0  0  0  0  0  0  0  0  0  0
   -0.7500   -1.2990    0.0000 C   0  0  0  0  0  0  0  0  0  0  0  0
   -1.5000    0.0000    0.0000 C   0  0  0  0  0  0  0  0  0  0  0  0
   -0.7500    1.2990    0.0000 C   0  0  0  0  0  0  0  0  0  0  0  0
   -1.5000    2.5981    0.0000 C   0  0  0  0  0  0  0  0  0  0  0  0
   -0.3509    3.5623    0.0000 N   0  0  0  0  0  0  0  0  0  0  0  0
   -0.6114    5.0395    0.0000 C   0  0  0  0  0  0  0  0  0  0  0  0
    0.5377    6.0037    0.0000 N   0  0  0  0  0  0  0  0  0  0  0  0
    0.2772    7.4809    0.0000 C   0  0  0  0  0  0  0  0  0  0  0  0
   -1.1324    7.9939    0.0000 C   0  0  0  0  0  0  0  0  0  0  0  0
   -1.3928    9.4711    0.0000 C   0  0  0  0  0  0  0  0  0  0  0  0
   -2.8024    9.9841    0.0000 O   0  0  0  0  0  0  0  0  0  0  0  0
   -0.2438   10.4353    0.0000 N   0  0  0  0  0  0  0  0  0  0  0  0
   -0.5042   11.9125    0.0000 O   0  0  0  0  0  0  0  0  0  0  0  0
   -2.2814    7.0297    0.0000 C   0  0  0  0  0  0  0  0  0  0  0  0
   -2.0209    5.5525    0.0000 N   0  0  0  0  0  0  0  0  0  0  0  0
   -2.6491    3.5623    0.0000 C   0  0  0  0  0  0  0  0  0  0  0  0
   -2.9095    2.0850    0.0000 C   0  0  0  0  0  0  0  0  0  0  0  0
    0.7500    1.2990    0.0000 C   0  0  0  0  0  0  0  0  0  0  0  0
  1  2  1  0
  2  3  2  0
  3  4  1  0
  4  5  2  0
  5  6  1  0
  6  7  1  0
  7  8  1  0
  8  9  1  0
  9 10  2  0
 10 11  1  0
 11 12  2  0
 12 13  1  0
 13 14  2  0
 13 15  1  0
 15 16  1  0
 12 17  1  0
 17 18  2  0
  7 19  1  0
 19 20  1  0
  6 21  2  0
 21  2  1  0
 20  7  1  0
 18  9  1  0
M  END
>  <molecule_chembl_id>  (1044) 
CHEMBL3656003

>  <canonical_smiles>  (1044) 
Cc1cccc(C2(Nc3ncc(C(=O)NO)cn3)CC2)c1

>  <pchembl_value_mean>  (1044) 
7.4

>  <document_chembl_id>  (1044) 
CHEMBL3639071

$$$$

     RDKit          2D

 26 29  0  0  0  0  0  0  0  0999 V2000
   -0.9605    8.9357    0.0000 C   0  0  0  0  0  0  0  0  0  0  0  0
   -0.3504    7.5654    0.0000 C   0  0  0  0  0  0  0  0  0  0  0  0
   -1.1004    6.2664    0.0000 C   0  0  0  0  0  0  0  0  0  0  0  0
   -0.0967    5.1517    0.0000 C   0  0  0  0  0  0  0  0  0  0  0  0
   -0.4086    3.6844    0.0000 C   0  0  0  0  0  0  0  0  0  0  0  0
   -1.8351    3.2209    0.0000 C   0  0  0  0  0  0  0  0  0  0  0  0
   -2.1470    1.7537    0.0000 C   0  0  0  0  0  0  0  0  0  0  0  0
   -1.0323    0.7500    0.0000 C   0  0  0  0  0  0  0  0  0  0  0  0
    0.3943    1.2135    0.0000 C   0  0  0  0  0  0  0  0  0  0  0  0
    0.7062    2.6807    0.0000 C   0  0  0  0  0  0  0  0  0  0  0  0
    1.2760    0.0000    0.0000 O   0  0  0  0  0  0  0  0  0  0  0  0
    0.3943   -1.2135    0.0000 C   0  0  0  0  0  0  0  0  0  0  0  0
   -1.0323   -0.7500    0.0000 O   0  0  0  0  0  0  0  0  0  0  0  0
    1.2736    5.7618    0.0000 N   0  0  0  0  0  0  0  0  0  0  0  0
    1.1168    7.2536    0.0000 N   0  0  0  0  0  0  0  0  0  0  0  0
    2.2316    8.2572    0.0000 C   0  0  0  0  0  0  0  0  0  0  0  0
    3.6581    7.7937    0.0000 C   0  0  0  0  0  0  0  0  0  0  0  0
    3.9700    6.3265    0.0000 C   0  0  0  0  0  0  0  0  0  0  0  0
    5.3966    5.8630    0.0000 C   0  0  0  0  0  0  0  0  0  0  0  0
    6.5113    6.8667    0.0000 C   0  0  0  0  0  0  0  0  0  0  0  0
    7.9379    6.4031    0.0000 C   0  0  0  0  0  0  0  0  0  0  0  0
    9.0526    7.4068    0.0000 O   0  0  0  0  0  0  0  0  0  0  0  0
    8.2498    4.9359    0.0000 N   0  0  0  0  0  0  0  0  0  0  0  0
    9.6764    4.4724    0.0000 O   0  0  0  0  0  0  0  0  0  0  0  0
    6.1994    8.3339    0.0000 C   0  0  0  0  0  0  0  0  0  0  0  0
    4.7729    8.7974    0.0000 C   0  0  0  0  0  0  0  0  0  0  0  0
  1  2  1  0
  2  3  2  0
  3  4  1  0
  4  5  1  0
  5  6  2  0
  6  7  1  0
  7  8  2  0
  8  9  1  0
  9 10  2  0
  9 11  1  0
 11 12  1  0
 12 13  1  0
  4 14  2  0
 14 15  1  0
 15 16  1  0
 16 17  1  0
 17 18  2  0
 18 19  1  0
 19 20  2  0
 20 21  1  0
 21 22  2  0
 21 23  1  0
 23 24  1  0
 20 25  1  0
 25 26  2  0
 15  2  1  0
 26 17  1  0
 10  5  1  0
 13  8  1  0
M  END
>  <molecule_chembl_id>  (1045) 
CHEMBL4228987

>  <canonical_smiles>  (1045) 
Cc1cc(-c2ccc3c(c2)OCO3)nn1Cc1ccc(C(=O)NO)cc1

>  <pchembl_value_mean>  (1045) 
7.4

>  <document_chembl_id>  (1045) 
CHEMBL4219109

$$$$

     RDKit          2D

 21 23  0  0  0  0  0  0  0  0999 V2000
    3.7500    1.2990    0.0000 O   0  0  0  0  0  0  0  0  0  0  0  0
    3.0000    0.0000    0.0000 C   0  0  0  0  0  0  0  0  0  0  0  0
    3.7500   -1.2990    0.0000 N   0  0  0  0  0  0  0  0  0  0  0  0
    5.2500   -1.2990    0.0000 O   0  0  0  0  0  0  0  0  0  0  0  0
    1.5000    0.0000    0.0000 C   0  0  0  0  0  0  0  0  0  0  0  0
    0.7500   -1.2990    0.0000 C   0  0  0  0  0  0  0  0  0  0  0  0
   -0.7500   -1.2990    0.0000 N   0  0  0  0  0  0  0  0  0  0  0  0
   -1.5000    0.0000    0.0000 C   0  0  0  0  0  0  0  0  0  0  0  0
   -3.0000    0.0000    0.0000 N   0  0  0  0  0  0  0  0  0  0  0  0
   -3.7500    1.2990    0.0000 C   0  0  0  0  0  0  0  0  0  0  0  0
   -5.1595    0.7860    0.0000 C   0  0  0  0  0  0  0  0  0  0  0  0
   -5.4200   -0.6912    0.0000 C   0  0  0  0  0  0  0  0  0  0  0  0
   -6.8296   -1.2042    0.0000 C   0  0  0  0  0  0  0  0  0  0  0  0
   -7.9786   -0.2401    0.0000 C   0  0  0  0  0  0  0  0  0  0  0  0
   -9.3882   -0.7531    0.0000 Cl  0  0  0  0  0  0  0  0  0  0  0  0
   -7.7181    1.2372    0.0000 C   0  0  0  0  0  0  0  0  0  0  0  0
   -6.3086    1.7502    0.0000 C   0  0  0  0  0  0  0  0  0  0  0  0
   -4.0105    2.7762    0.0000 C   0  0  0  0  0  0  0  0  0  0  0  0
   -2.6009    2.2632    0.0000 C   0  0  0  0  0  0  0  0  0  0  0  0
   -0.7500    1.2990    0.0000 N   0  0  0  0  0  0  0  0  0  0  0  0
    0.7500    1.2990    0.0000 C   0  0  0  0  0  0  0  0  0  0  0  0
  1  2  2  0
  2  3  1  0
  3  4  1  0
  2  5  1  0
  5  6  2  0
  6  7  1  0
  7  8  2  0
  8  9  1  0
  9 10  1  0
 10 11  1  0
 11 12  2  0
 12 13  1  0
 13 14  2  0
 14 15  1  0
 14 16  1  0
 16 17  2  0
 10 18  1  0
 18 19  1  0
  8 20  1  0
 20 21  2  0
 21  5  1  0
 19 10  1  0
 17 11  1  0
M  END
>  <molecule_chembl_id>  (1046) 
CHEMBL3656005

>  <canonical_smiles>  (1046) 
O=C(NO)c1cnc(NC2(c3ccc(Cl)cc3)CC2)nc1

>  <pchembl_value_mean>  (1046) 
7.4

>  <document_chembl_id>  (1046) 
CHEMBL3639071

$$$$

     RDKit          2D

 27 29  0  0  0  0  0  0  0  0999 V2000
  -15.0000   -2.5981    0.0000 C   0  0  0  0  0  0  0  0  0  0  0  0
  -14.2500   -3.8971    0.0000 C   0  0  0  0  0  0  0  0  0  0  0  0
  -12.7500   -3.8971    0.0000 C   0  0  0  0  0  0  0  0  0  0  0  0
  -12.0000   -5.1962    0.0000 N   0  0  0  0  0  0  0  0  0  0  0  0
  -10.5000   -5.1962    0.0000 N   0  0  0  0  0  0  0  0  0  0  0  0
   -9.7500   -6.4952    0.0000 C   0  0  0  0  0  0  0  0  0  0  0  0
  -10.5000   -7.7942    0.0000 O   0  0  0  0  0  0  0  0  0  0  0  0
   -8.2500   -6.4952    0.0000 C   0  0  0  0  0  0  0  0  0  0  0  0
   -7.5000   -5.1962    0.0000 C   0  0  0  0  0  0  0  0  0  0  0  0
   -6.0000   -5.1962    0.0000 C   0  0  0  0  0  0  0  0  0  0  0  0
   -5.2500   -6.4952    0.0000 C   0  0  0  0  0  0  0  0  0  0  0  0
   -3.7500   -6.4952    0.0000 C   0  0  0  0  0  0  0  0  0  0  0  0
   -3.0000   -5.1962    0.0000 N   0  0  0  0  0  0  0  0  0  0  0  0
   -1.5000   -5.1962    0.0000 C   0  0  0  0  0  0  0  0  0  0  0  0
   -0.7500   -6.4952    0.0000 O   0  0  0  0  0  0  0  0  0  0  0  0
   -0.7500   -3.8971    0.0000 C   0  0  0  0  0  0  0  0  0  0  0  0
    0.7500   -3.8971    0.0000 C   0  0  0  0  0  0  0  0  0  0  0  0
    1.5000   -2.5981    0.0000 C   0  0  0  0  0  0  0  0  0  0  0  0
    0.7500   -1.2990    0.0000 C   0  0  0  0  0  0  0  0  0  0  0  0
    1.5000    0.0000    0.0000 C   0  0  0  0  0  0  0  0  0  0  0  0
    0.7500    1.2990    0.0000 N   0  0  0  0  0  0  0  0  0  0  0  0
   -0.7500    1.2990    0.0000 C   0  0  0  0  0  0  0  0  0  0  0  0
   -1.5000    0.0000    0.0000 C   0  0  0  0  0  0  0  0  0  0  0  0
   -0.7500   -1.2990    0.0000 C   0  0  0  0  0  0  0  0  0  0  0  0
   -1.5000   -2.5981    0.0000 C   0  0  0  0  0  0  0  0  0  0  0  0
   -6.0000   -7.7942    0.0000 C   0  0  0  0  0  0  0  0  0  0  0  0
   -7.5000   -7.7942    0.0000 C   0  0  0  0  0  0  0  0  0  0  0  0
  1  2  1  0
  2  3  1  0
  3  4  1  0
  4  5  1  0
  5  6  1  0
  6  7  2  0
  6  8  1  0
  8  9  2  0
  9 10  1  0
 10 11  2  0
 11 12  1  0
 12 13  1  0
 13 14  1  0
 14 15  2  0
 14 16  1  0
 16 17  2  0
 17 18  1  0
 18 19  2  0
 19 20  1  0
 20 21  2  0
 21 22  1  0
 22 23  2  0
 23 24  1  0
 24 25  2  0
 11 26  1  0
 26 27  2  0
 27  8  1  0
 25 16  1  0
 24 19  1  0
M  END
>  <molecule_chembl_id>  (1047) 
CHEMBL5075150

>  <canonical_smiles>  (1047) 
CCCNNC(=O)c1ccc(CNC(=O)c2ccc3cnccc3c2)cc1

>  <pchembl_value_mean>  (1047) 
7.4

>  <document_chembl_id>  (1047) 
CHEMBL5042504

$$$$

     RDKit          2D

 40 43  0  0  0  0  0  0  0  0999 V2000
   -7.5000   -7.7942    0.0000 O   0  0  0  0  0  0  0  0  0  0  0  0
   -6.0000   -7.7942    0.0000 C   0  0  0  0  0  0  0  0  0  0  0  0
   -5.2500   -6.4952    0.0000 N   0  0  0  0  0  0  0  0  0  0  0  0
   -6.0000   -5.1962    0.0000 C   0  0  0  0  0  0  0  0  0  0  0  0
   -7.5000   -5.1962    0.0000 C   0  0  0  0  0  0  0  0  0  0  0  0
   -8.2500   -6.4952    0.0000 C   0  0  0  0  0  0  0  0  0  0  0  0
   -9.7500   -6.4952    0.0000 C   0  0  0  0  0  0  0  0  0  0  0  0
  -10.5000   -7.7942    0.0000 C   0  0  0  0  0  0  0  0  0  0  0  0
  -12.0000   -7.7942    0.0000 C   0  0  0  0  0  0  0  0  0  0  0  0
  -12.7500   -9.0933    0.0000 C   0  0  0  0  0  0  0  0  0  0  0  0
  -14.2500   -9.0933    0.0000 S   0  0  0  0  0  0  0  0  0  0  0  0
  -15.0000  -10.3923    0.0000 S   0  0  0  0  0  0  0  0  0  0  0  0
  -16.5000  -10.3923    0.0000 C   0  0  0  0  0  0  0  0  0  0  0  0
  -17.2500   -9.0933    0.0000 C   0  0  0  0  0  0  0  0  0  0  0  0
  -18.7500   -9.0933    0.0000 C   0  0  0  0  0  0  0  0  0  0  0  0
  -19.5000  -10.3923    0.0000 C   0  0  0  0  0  0  0  0  0  0  0  0
  -18.7500  -11.6913    0.0000 C   0  0  0  0  0  0  0  0  0  0  0  0
  -17.2500  -11.6913    0.0000 N   0  0  0  0  0  0  0  0  0  0  0  0
   -5.2500   -3.8971    0.0000 C   0  0  0  0  0  0  0  0  0  0  0  0
   -6.0000   -2.5981    0.0000 O   0  0  0  0  0  0  0  0  0  0  0  0
   -3.7500   -3.8971    0.0000 O   0  0  0  0  0  0  0  0  0  0  0  0
   -3.0000   -2.5981    0.0000 C   0  0  0  0  0  0  0  0  0  0  0  0
   -1.5000   -2.5981    0.0000 C   0  0  0  0  0  0  0  0  0  0  0  0
   -0.7500   -3.8971    0.0000 C   0  0  0  0  0  0  0  0  0  0  0  0
    0.7500   -3.8971    0.0000 C   0  0  0  0  0  0  0  0  0  0  0  0
    1.5000   -2.5981    0.0000 C   0  0  0  0  0  0  0  0  0  0  0  0
    0.7500   -1.2990    0.0000 C   0  0  0  0  0  0  0  0  0  0  0  0
    1.5000    0.0000    0.0000 C   0  0  0  0  0  0  0  0  0  0  0  0
    0.7500    1.2990    0.0000 C   0  0  0  0  0  0  0  0  0  0  0  0
   -0.7500    1.2990    0.0000 C   0  0  0  0  0  0  0  0  0  0  0  0
   -1.5000    0.0000    0.0000 C   0  0  0  0  0  0  0  0  0  0  0  0
   -0.7500   -1.2990    0.0000 C   0  0  0  0  0  0  0  0  0  0  0  0
   -5.2500   -9.0933    0.0000 O   0  0  0  0  0  0  0  0  0  0  0  0
   -6.0000  -10.3923    0.0000 C   0  0  0  0  0  0  0  0  0  0  0  0
   -5.2500  -11.6913    0.0000 C   0  0  0  0  0  0  0  0  0  0  0  0
   -6.0000  -12.9904    0.0000 C   0  0  0  0  0  0  0  0  0  0  0  0
   -5.2500  -14.2894    0.0000 C   0  0  0  0  0  0  0  0  0  0  0  0
   -3.7500  -14.2894    0.0000 C   0  0  0  0  0  0  0  0  0  0  0  0
   -3.0000  -12.9904    0.0000 C   0  0  0  0  0  0  0  0  0  0  0  0
   -3.7500  -11.6913    0.0000 C   0  0  0  0  0  0  0  0  0  0  0  0
  1  2  2  0
  2  3  1  0
  3  4  1  0
  4  5  1  0
  5  6  1  0
  6  7  1  0
  7  8  1  0
  8  9  1  0
  9 10  1  0
 10 11  1  0
 11 12  1  0
 12 13  1  0
 13 14  2  0
 14 15  1  0
 15 16  2  0
 16 17  1  0
 17 18  2  0
  4 19  1  0
 19 20  2  0
 19 21  1  0
 21 22  1  0
 22 23  1  0
 23 24  2  0
 24 25  1  0
 25 26  2  0
 26 27  1  0
 27 28  2  0
 28 29  1  0
 29 30  2  0
 30 31  1  0
 31 32  2  0
  2 33  1  0
 33 34  1  0
 34 35  1  0
 35 36  2  0
 36 37  1  0
 37 38  2  0
 38 39  1  0
 39 40  2  0
 18 13  1  0
 32 23  1  0
 40 35  1  0
 32 27  1  0
M  END
>  <molecule_chembl_id>  (1048) 
CHEMBL2022833

>  <canonical_smiles>  (1048) 
O=C(NC(CCCCCCSSc1ccccn1)C(=O)OCc1cccc2ccccc12)OCc1ccccc1

>  <pchembl_value_mean>  (1048) 
7.4

>  <document_chembl_id>  (1048) 
CHEMBL2021837

$$$$

     RDKit          2D

 33 36  0  0  0  0  0  0  0  0999 V2000
    1.5000   -5.1073    0.0000 C   0  0  0  0  0  0  0  0  0  0  0  0
   -0.0000   -5.1073    0.0000 C   0  0  0  0  0  0  0  0  0  0  0  0
   -1.5000   -5.1073    0.0000 C   0  0  0  0  0  0  0  0  0  0  0  0
   -0.0000   -6.6073    0.0000 C   0  0  0  0  0  0  0  0  0  0  0  0
   -0.0000   -3.6073    0.0000 C   0  0  0  0  0  0  0  0  0  0  0  0
    1.2135   -2.7256    0.0000 N   0  0  0  0  0  0  0  0  0  0  0  0
    0.7500   -1.2990    0.0000 C   0  0  0  0  0  0  0  0  0  0  0  0
    1.5000    0.0000    0.0000 C   0  0  0  0  0  0  0  0  0  0  0  0
    0.7500    1.2990    0.0000 C   0  0  0  0  0  0  0  0  0  0  0  0
   -0.7500    1.2990    0.0000 C   0  0  0  0  0  0  0  0  0  0  0  0
   -1.5000    0.0000    0.0000 C   0  0  0  0  0  0  0  0  0  0  0  0
   -0.7500   -1.2990    0.0000 C   0  0  0  0  0  0  0  0  0  0  0  0
   -1.2135   -2.7256    0.0000 C   0  0  0  0  0  0  0  0  0  0  0  0
   -2.6401   -3.1891    0.0000 C   0  0  0  0  0  0  0  0  0  0  0  0
   -3.7548   -2.1855    0.0000 C   0  0  0  0  0  0  0  0  0  0  0  0
   -5.1814   -2.6490    0.0000 C   0  0  0  0  0  0  0  0  0  0  0  0
   -5.4933   -4.1162    0.0000 C   0  0  0  0  0  0  0  0  0  0  0  0
   -4.3786   -5.1199    0.0000 N   0  0  0  0  0  0  0  0  0  0  0  0
   -4.6904   -6.5871    0.0000 C   0  0  0  0  0  0  0  0  0  0  0  0
   -6.1170   -7.0506    0.0000 C   0  0  0  0  0  0  0  0  0  0  0  0
   -7.2317   -6.0469    0.0000 C   0  0  0  0  0  0  0  0  0  0  0  0
   -8.6583   -6.5105    0.0000 C   0  0  0  0  0  0  0  0  0  0  0  0
   -8.9702   -7.9777    0.0000 C   0  0  0  0  0  0  0  0  0  0  0  0
  -10.3968   -8.4412    0.0000 C   0  0  0  0  0  0  0  0  0  0  0  0
  -11.5115   -7.4375    0.0000 C   0  0  0  0  0  0  0  0  0  0  0  0
  -12.9381   -7.9010    0.0000 C   0  0  0  0  0  0  0  0  0  0  0  0
  -13.2499   -9.3683    0.0000 O   0  0  0  0  0  0  0  0  0  0  0  0
  -14.0528   -6.8974    0.0000 N   0  0  0  0  0  0  0  0  0  0  0  0
  -15.4794   -7.3609    0.0000 O   0  0  0  0  0  0  0  0  0  0  0  0
   -7.8555   -8.9814    0.0000 C   0  0  0  0  0  0  0  0  0  0  0  0
   -6.4289   -8.5179    0.0000 C   0  0  0  0  0  0  0  0  0  0  0  0
   -5.3142   -9.5216    0.0000 F   0  0  0  0  0  0  0  0  0  0  0  0
   -2.9520   -4.6564    0.0000 C   0  0  0  0  0  0  0  0  0  0  0  0
  1  2  1  0
  2  3  1  0
  2  4  1  0
  2  5  1  0
  5  6  1  0
  6  7  1  0
  7  8  2  0
  8  9  1  0
  9 10  2  0
 10 11  1  0
 11 12  2  0
 12 13  1  0
 13 14  1  0
 14 15  1  0
 15 16  1  0
 16 17  1  0
 17 18  1  0
 18 19  1  0
 19 20  1  0
 20 21  2  0
 21 22  1  0
 22 23  2  0
 23 24  1  0
 24 25  2  3
 25 26  1  0
 26 27  2  0
 26 28  1  0
 28 29  1  0
 23 30  1  0
 30 31  2  0
 31 32  1  0
 18 33  1  0
 13  5  2  0
 33 14  1  0
 12  7  1  0
 31 20  1  0
M  END
>  <molecule_chembl_id>  (1049) 
CHEMBL1093033

>  <canonical_smiles>  (1049) 
CC(C)(C)c1[nH]c2ccccc2c1C1CCCN(Cc2ccc(C=CC(=O)NO)cc2F)C1

>  <pchembl_value_mean>  (1049) 
7.415

>  <document_chembl_id>  (1049) 
CHEMBL1156307

$$$$

     RDKit          2D

 38 42  0  0  0  0  0  0  0  0999 V2000
    3.7500   -1.2990    0.0000 C   0  0  0  0  0  0  0  0  0  0  0  0
    3.0000    0.0000    0.0000 O   0  0  0  0  0  0  0  0  0  0  0  0
    1.5000    0.0000    0.0000 C   0  0  0  0  0  0  0  0  0  0  0  0
    0.7500   -1.2990    0.0000 C   0  0  0  0  0  0  0  0  0  0  0  0
   -0.7500   -1.2990    0.0000 C   0  0  0  0  0  0  0  0  0  0  0  0
   -1.5000   -2.5981    0.0000 N   0  0  0  0  0  0  0  0  0  0  0  0
   -3.0000   -2.5981    0.0000 C   0  0  0  0  0  0  0  0  0  0  0  0
   -3.7500   -3.8971    0.0000 C   0  0  0  0  0  0  0  0  0  0  0  0
   -3.1399   -5.2674    0.0000 C   0  0  0  0  0  0  0  0  0  0  0  0
   -4.2546   -6.2711    0.0000 C   0  0  0  0  0  0  0  0  0  0  0  0
   -5.5537   -5.5211    0.0000 C   0  0  0  0  0  0  0  0  0  0  0  0
   -6.9240   -6.1312    0.0000 C   0  0  0  0  0  0  0  0  0  0  0  0
   -5.2418   -4.0539    0.0000 O   0  0  0  0  0  0  0  0  0  0  0  0
   -3.7500   -1.2990    0.0000 N   0  0  0  0  0  0  0  0  0  0  0  0
   -3.0000    0.0000    0.0000 C   0  0  0  0  0  0  0  0  0  0  0  0
   -3.7500    1.2990    0.0000 N   0  0  0  0  0  0  0  0  0  0  0  0
   -5.2500    1.2990    0.0000 C   0  0  0  0  0  0  0  0  0  0  0  0
   -6.0000    2.5981    0.0000 C   0  0  0  0  0  0  0  0  0  0  0  0
   -5.2500    3.8971    0.0000 C   0  0  0  0  0  0  0  0  0  0  0  0
   -6.0000    5.1962    0.0000 C   0  0  0  0  0  0  0  0  0  0  0  0
   -7.5000    5.1962    0.0000 N   0  0  0  0  0  0  0  0  0  0  0  0
   -8.2500    6.4952    0.0000 C   0  0  0  0  0  0  0  0  0  0  0  0
   -7.5000    7.7942    0.0000 N   0  0  0  0  0  0  0  0  0  0  0  0
   -8.2500    9.0933    0.0000 C   0  0  0  0  0  0  0  0  0  0  0  0
   -9.7500    9.0933    0.0000 C   0  0  0  0  0  0  0  0  0  0  0  0
  -10.5000   10.3923    0.0000 C   0  0  0  0  0  0  0  0  0  0  0  0
  -12.0000   10.3923    0.0000 O   0  0  0  0  0  0  0  0  0  0  0  0
   -9.7500   11.6913    0.0000 N   0  0  0  0  0  0  0  0  0  0  0  0
  -10.5000   12.9904    0.0000 O   0  0  0  0  0  0  0  0  0  0  0  0
  -10.5000    7.7942    0.0000 C   0  0  0  0  0  0  0  0  0  0  0  0
   -9.7500    6.4952    0.0000 N   0  0  0  0  0  0  0  0  0  0  0  0
   -8.2500    3.8971    0.0000 C   0  0  0  0  0  0  0  0  0  0  0  0
   -7.5000    2.5981    0.0000 C   0  0  0  0  0  0  0  0  0  0  0  0
   -1.5000    0.0000    0.0000 C   0  0  0  0  0  0  0  0  0  0  0  0
   -0.7500    1.2990    0.0000 C   0  0  0  0  0  0  0  0  0  0  0  0
    0.7500    1.2990    0.0000 C   0  0  0  0  0  0  0  0  0  0  0  0
    1.5000    2.5981    0.0000 O   0  0  0  0  0  0  0  0  0  0  0  0
    3.0000    2.5981    0.0000 C   0  0  0  0  0  0  0  0  0  0  0  0
  1  2  1  0
  2  3  1  0
  3  4  2  0
  4  5  1  0
  5  6  2  0
  6  7  1  0
  7  8  1  0
  8  9  2  0
  9 10  1  0
 10 11  2  0
 11 12  1  0
 11 13  1  0
  7 14  2  0
 14 15  1  0
 15 16  1  0
 16 17  1  0
 17 18  1  0
 18 19  1  0
 19 20  1  0
 20 21  1  0
 21 22  1  0
 22 23  2  0
 23 24  1  0
 24 25  2  0
 25 26  1  0
 26 27  2  0
 26 28  1  0
 28 29  1  0
 25 30  1  0
 30 31  2  0
 21 32  1  0
 32 33  1  0
 15 34  2  0
 34 35  1  0
 35 36  2  0
 36 37  1  0
 37 38  1  0
 36  3  1  0
 34  5  1  0
 13  8  1  0
 33 18  1  0
 31 22  1  0
M  END
>  <molecule_chembl_id>  (1050) 
CHEMBL4854765

>  <canonical_smiles>  (1050) 
COc1cc2nc(-c3ccc(C)o3)nc(NCC3CCN(c4ncc(C(=O)NO)cn4)CC3)c2cc1OC

>  <pchembl_value_mean>  (1050) 
7.42

>  <document_chembl_id>  (1050) 
CHEMBL4834403

$$$$

     RDKit          2D

 39 42  0  0  0  0  0  0  0  0999 V2000
   -8.2500   -3.8971    0.0000 O   0  0  0  0  0  0  0  0  0  0  0  0
   -7.5000   -2.5981    0.0000 C   0  0  0  0  0  0  0  0  0  0  0  0
   -6.0000   -2.5981    0.0000 N   0  0  0  0  0  0  0  0  0  0  0  0
   -5.2500   -3.8971    0.0000 C   0  0  0  0  0  0  0  0  0  0  0  0
   -6.0000   -5.1962    0.0000 C   0  0  0  0  0  0  0  0  0  0  0  0
   -7.5000   -5.1962    0.0000 C   0  0  0  0  0  0  0  0  0  0  0  0
   -8.2500   -6.4952    0.0000 C   0  0  0  0  0  0  0  0  0  0  0  0
   -9.7500   -6.4952    0.0000 C   0  0  0  0  0  0  0  0  0  0  0  0
  -10.5000   -7.7942    0.0000 C   0  0  0  0  0  0  0  0  0  0  0  0
  -12.0000   -7.7942    0.0000 C   0  0  0  0  0  0  0  0  0  0  0  0
  -12.7500   -9.0933    0.0000 S   0  0  0  0  0  0  0  0  0  0  0  0
  -14.2500   -9.0933    0.0000 S   0  0  0  0  0  0  0  0  0  0  0  0
  -15.0000  -10.3923    0.0000 C   0  0  0  0  0  0  0  0  0  0  0  0
  -16.5000  -10.3923    0.0000 C   0  0  0  0  0  0  0  0  0  0  0  0
  -17.2500  -11.6913    0.0000 C   0  0  0  0  0  0  0  0  0  0  0  0
  -16.5000  -12.9904    0.0000 C   0  0  0  0  0  0  0  0  0  0  0  0
  -15.0000  -12.9904    0.0000 C   0  0  0  0  0  0  0  0  0  0  0  0
  -14.2500  -11.6913    0.0000 N   0  0  0  0  0  0  0  0  0  0  0  0
   -3.7500   -3.8971    0.0000 C   0  0  0  0  0  0  0  0  0  0  0  0
   -3.0000   -5.1962    0.0000 O   0  0  0  0  0  0  0  0  0  0  0  0
   -3.0000   -2.5981    0.0000 N   0  0  0  0  0  0  0  0  0  0  0  0
   -1.5000   -2.5981    0.0000 C   0  0  0  0  0  0  0  0  0  0  0  0
   -0.7500   -3.8971    0.0000 C   0  0  0  0  0  0  0  0  0  0  0  0
    0.7500   -3.8971    0.0000 C   0  0  0  0  0  0  0  0  0  0  0  0
    1.5000   -2.5981    0.0000 C   0  0  0  0  0  0  0  0  0  0  0  0
    0.7500   -1.2990    0.0000 C   0  0  0  0  0  0  0  0  0  0  0  0
    1.5000    0.0000    0.0000 C   0  0  0  0  0  0  0  0  0  0  0  0
    0.7500    1.2990    0.0000 C   0  0  0  0  0  0  0  0  0  0  0  0
   -0.7500    1.2990    0.0000 C   0  0  0  0  0  0  0  0  0  0  0  0
   -1.5000    0.0000    0.0000 C   0  0  0  0  0  0  0  0  0  0  0  0
   -0.7500   -1.2990    0.0000 C   0  0  0  0  0  0  0  0  0  0  0  0
   -8.2500   -1.2990    0.0000 O   0  0  0  0  0  0  0  0  0  0  0  0
   -9.7500   -1.2990    0.0000 C   0  0  0  0  0  0  0  0  0  0  0  0
  -10.5000    0.0000    0.0000 C   0  0  0  0  0  0  0  0  0  0  0  0
   -9.7500    1.2990    0.0000 C   0  0  0  0  0  0  0  0  0  0  0  0
  -10.5000    2.5981    0.0000 C   0  0  0  0  0  0  0  0  0  0  0  0
  -12.0000    2.5981    0.0000 C   0  0  0  0  0  0  0  0  0  0  0  0
  -12.7500    1.2990    0.0000 C   0  0  0  0  0  0  0  0  0  0  0  0
  -12.0000    0.0000    0.0000 C   0  0  0  0  0  0  0  0  0  0  0  0
  1  2  2  0
  2  3  1  0
  3  4  1  0
  4  5  1  0
  5  6  1  0
  6  7  1  0
  7  8  1  0
  8  9  1  0
  9 10  1  0
 10 11  1  0
 11 12  1  0
 12 13  1  0
 13 14  2  0
 14 15  1  0
 15 16  2  0
 16 17  1  0
 17 18  2  0
  4 19  1  0
 19 20  2  0
 19 21  1  0
 21 22  1  0
 22 23  2  0
 23 24  1  0
 24 25  2  0
 25 26  1  0
 26 27  2  0
 27 28  1  0
 28 29  2  0
 29 30  1  0
 30 31  2  0
  2 32  1  0
 32 33  1  0
 33 34  1  0
 34 35  2  0
 35 36  1  0
 36 37  2  0
 37 38  1  0
 38 39  2  0
 18 13  1  0
 31 22  1  0
 39 34  1  0
 31 26  1  0
M  END
>  <molecule_chembl_id>  (1051) 
CHEMBL2022823

>  <canonical_smiles>  (1051) 
O=C(NC(CCCCCCSSc1ccccn1)C(=O)Nc1cccc2ccccc12)OCc1ccccc1

>  <pchembl_value_mean>  (1051) 
7.42

>  <document_chembl_id>  (1051) 
CHEMBL2021837

$$$$

     RDKit          2D

 26 27  0  0  0  0  0  0  0  0999 V2000
   -0.7500   -3.8971    0.0000 O   0  0  0  0  0  0  0  0  0  0  0  0
    0.7500   -3.8971    0.0000 C   0  0  0  0  0  0  0  0  0  0  0  0
    1.5000   -2.5981    0.0000 N   0  0  0  0  0  0  0  0  0  0  0  0
    0.7500   -1.2990    0.0000 C   0  0  0  0  0  0  0  0  0  0  0  0
    1.5000    0.0000    0.0000 C   0  0  0  0  0  0  0  0  0  0  0  0
    0.7500    1.2990    0.0000 C   0  0  0  0  0  0  0  0  0  0  0  0
   -0.7500    1.2990    0.0000 C   0  0  0  0  0  0  0  0  0  0  0  0
   -1.5000    0.0000    0.0000 C   0  0  0  0  0  0  0  0  0  0  0  0
   -0.7500   -1.2990    0.0000 C   0  0  0  0  0  0  0  0  0  0  0  0
    1.5000   -5.1962    0.0000 C   0  0  0  0  0  0  0  0  0  0  0  0
    0.7500   -6.4952    0.0000 C   0  0  0  0  0  0  0  0  0  0  0  0
    1.5000   -7.7942    0.0000 C   0  0  0  0  0  0  0  0  0  0  0  0
    0.7500   -9.0933    0.0000 C   0  0  0  0  0  0  0  0  0  0  0  0
    1.5000  -10.3923    0.0000 C   0  0  0  0  0  0  0  0  0  0  0  0
    0.7500  -11.6913    0.0000 C   0  0  0  0  0  0  0  0  0  0  0  0
    1.5000  -12.9904    0.0000 S   0  0  0  0  0  0  0  0  0  0  0  0
    3.0000   -5.1962    0.0000 N   0  0  0  0  0  0  0  0  0  0  0  0
    3.7500   -6.4952    0.0000 C   0  0  0  0  0  0  0  0  0  0  0  0
    3.0000   -7.7942    0.0000 O   0  0  0  0  0  0  0  0  0  0  0  0
    5.2500   -6.4952    0.0000 C   0  0  0  0  0  0  0  0  0  0  0  0
    6.0000   -7.7942    0.0000 C   0  0  0  0  0  0  0  0  0  0  0  0
    7.5000   -7.7942    0.0000 C   0  0  0  0  0  0  0  0  0  0  0  0
    8.2500   -6.4952    0.0000 C   0  0  0  0  0  0  0  0  0  0  0  0
    7.5000   -5.1962    0.0000 N   0  0  0  0  0  0  0  0  0  0  0  0
    6.0000   -5.1962    0.0000 C   0  0  0  0  0  0  0  0  0  0  0  0
    5.2500   -3.8971    0.0000 O   0  0  0  0  0  0  0  0  0  0  0  0
  1  2  2  0
  2  3  1  0
  3  4  1  0
  4  5  2  0
  5  6  1  0
  6  7  2  0
  7  8  1  0
  8  9  2  0
  2 10  1  0
 10 11  1  0
 11 12  1  0
 12 13  1  0
 13 14  1  0
 14 15  1  0
 15 16  1  0
 10 17  1  0
 17 18  1  0
 18 19  2  0
 18 20  1  0
 20 21  1  0
 21 22  1  0
 22 23  1  0
 23 24  1  0
 24 25  1  0
 25 26  2  0
  9  4  1  0
 25 20  1  0
M  END
>  <molecule_chembl_id>  (1052) 
CHEMBL3356915

>  <canonical_smiles>  (1052) 
O=C(Nc1ccccc1)C(CCCCCS)NC(=O)C1CCCNC1=O

>  <pchembl_value_mean>  (1052) 
7.435

>  <document_chembl_id>  (1052) 
CHEMBL3352570

$$$$

     RDKit          2D

 21 23  0  0  0  0  0  0  0  0999 V2000
    3.7500    1.2990    0.0000 O   0  0  0  0  0  0  0  0  0  0  0  0
    3.0000    0.0000    0.0000 C   0  0  0  0  0  0  0  0  0  0  0  0
    3.7500   -1.2990    0.0000 N   0  0  0  0  0  0  0  0  0  0  0  0
    5.2500   -1.2990    0.0000 O   0  0  0  0  0  0  0  0  0  0  0  0
    1.5000    0.0000    0.0000 C   0  0  0  0  0  0  0  0  0  0  0  0
    0.7500   -1.2990    0.0000 C   0  0  0  0  0  0  0  0  0  0  0  0
   -0.7500   -1.2990    0.0000 N   0  0  0  0  0  0  0  0  0  0  0  0
   -1.5000    0.0000    0.0000 C   0  0  0  0  0  0  0  0  0  0  0  0
   -3.0000    0.0000    0.0000 N   0  0  0  0  0  0  0  0  0  0  0  0
   -3.7500    1.2990    0.0000 C   0  0  0  0  0  0  0  0  0  0  0  0
   -5.1595    0.7860    0.0000 C   0  0  0  0  0  0  0  0  0  0  0  0
   -5.4200   -0.6912    0.0000 C   0  0  0  0  0  0  0  0  0  0  0  0
   -6.8296   -1.2042    0.0000 C   0  0  0  0  0  0  0  0  0  0  0  0
   -7.9786   -0.2401    0.0000 C   0  0  0  0  0  0  0  0  0  0  0  0
   -7.7181    1.2372    0.0000 C   0  0  0  0  0  0  0  0  0  0  0  0
   -6.3086    1.7502    0.0000 C   0  0  0  0  0  0  0  0  0  0  0  0
   -6.0481    3.2274    0.0000 Cl  0  0  0  0  0  0  0  0  0  0  0  0
   -4.0105    2.7762    0.0000 C   0  0  0  0  0  0  0  0  0  0  0  0
   -2.6009    2.2632    0.0000 C   0  0  0  0  0  0  0  0  0  0  0  0
   -0.7500    1.2990    0.0000 N   0  0  0  0  0  0  0  0  0  0  0  0
    0.7500    1.2990    0.0000 C   0  0  0  0  0  0  0  0  0  0  0  0
  1  2  2  0
  2  3  1  0
  3  4  1  0
  2  5  1  0
  5  6  2  0
  6  7  1  0
  7  8  2  0
  8  9  1  0
  9 10  1  0
 10 11  1  0
 11 12  2  0
 12 13  1  0
 13 14  2  0
 14 15  1  0
 15 16  2  0
 16 17  1  0
 10 18  1  0
 18 19  1  0
  8 20  1  0
 20 21  2  0
 21  5  1  0
 19 10  1  0
 16 11  1  0
M  END
>  <molecule_chembl_id>  (1053) 
CHEMBL3655967

>  <canonical_smiles>  (1053) 
O=C(NO)c1cnc(NC2(c3ccccc3Cl)CC2)nc1

>  <pchembl_value_mean>  (1053) 
7.44

>  <document_chembl_id>  (1053) 
CHEMBL3639071

$$$$

     RDKit          2D

 35 36  0  0  0  0  0  0  0  0999 V2000
    1.5922    6.6948    0.0000 C   0  0  0  0  0  0  0  0  0  0  0  0
    0.1004    6.8516    0.0000 C   0  0  0  0  0  0  0  0  0  0  0  0
   -0.7813    5.6380    0.0000 C   0  0  0  0  0  0  0  0  0  0  0  0
    0.2369    4.5365    0.0000 N   0  0  0  0  0  0  0  0  0  0  0  0
    0.7561    3.1293    0.0000 C   0  0  0  0  0  0  0  0  0  0  0  0
    2.2376    3.3639    0.0000 O   0  0  0  0  0  0  0  0  0  0  0  0
    0.3943    1.2135    0.0000 C   0  0  0  0  0  0  0  0  0  0  0  0
    1.2760    0.0000    0.0000 C   0  0  0  0  0  0  0  0  0  0  0  0
    0.3943   -1.2135    0.0000 S   0  0  0  0  0  0  0  0  0  0  0  0
   -1.0323   -0.7500    0.0000 C   0  0  0  0  0  0  0  0  0  0  0  0
   -1.0323    0.7500    0.0000 N   0  0  0  0  0  0  0  0  0  0  0  0
   -2.4396   -1.2692    0.0000 C   0  0  0  0  0  0  0  0  0  0  0  0
   -2.2049   -2.7507    0.0000 C   0  0  0  0  0  0  0  0  0  0  0  0
   -3.3706   -3.6947    0.0000 C   0  0  0  0  0  0  0  0  0  0  0  0
   -0.8046   -3.2883    0.0000 C   0  0  0  0  0  0  0  0  0  0  0  0
   -3.9384   -1.2103    0.0000 N   0  0  0  0  0  0  0  0  0  0  0  0
   -5.3006   -0.5823    0.0000 C   0  0  0  0  0  0  0  0  0  0  0  0
   -6.1823   -1.7958    0.0000 O   0  0  0  0  0  0  0  0  0  0  0  0
   -6.3188    0.5192    0.0000 C   0  0  0  0  0  0  0  0  0  0  0  0
   -6.8380    1.9265    0.0000 C   0  0  0  0  0  0  0  0  0  0  0  0
   -8.3195    1.6918    0.0000 C   0  0  0  0  0  0  0  0  0  0  0  0
   -9.2635    2.8575    0.0000 C   0  0  0  0  0  0  0  0  0  0  0  0
  -10.7451    2.6229    0.0000 C   0  0  0  0  0  0  0  0  0  0  0  0
  -11.6890    3.7886    0.0000 C   0  0  0  0  0  0  0  0  0  0  0  0
  -13.1706    3.5540    0.0000 S   0  0  0  0  0  0  0  0  0  0  0  0
   -6.7791    3.4253    0.0000 O   0  0  0  0  0  0  0  0  0  0  0  0
   -6.1511    4.7875    0.0000 C   0  0  0  0  0  0  0  0  0  0  0  0
   -7.3647    5.6692    0.0000 O   0  0  0  0  0  0  0  0  0  0  0  0
   -5.0496    5.8057    0.0000 C   0  0  0  0  0  0  0  0  0  0  0  0
   -5.8334    7.0847    0.0000 C   0  0  0  0  0  0  0  0  0  0  0  0
   -5.1177    8.4029    0.0000 C   0  0  0  0  0  0  0  0  0  0  0  0
   -7.3329    7.0454    0.0000 C   0  0  0  0  0  0  0  0  0  0  0  0
   -3.6424    6.3249    0.0000 N   0  0  0  0  0  0  0  0  0  0  0  0
   -2.1435    6.2660    0.0000 C   0  0  0  0  0  0  0  0  0  0  0  0
   -1.7933    7.7246    0.0000 O   0  0  0  0  0  0  0  0  0  0  0  0
  1  2  1  0
  2  3  2  3
  3  4  1  0
  4  5  1  0
  5  6  2  0
  5  7  1  0
  7  8  2  0
  8  9  1  0
  9 10  1  0
 10 11  2  0
 10 12  1  0
 12 13  1  0
 13 14  1  0
 13 15  1  0
 12 16  1  0
 16 17  1  0
 17 18  2  0
 17 19  1  0
 19 20  1  0
 20 21  1  0
 21 22  2  3
 22 23  1  0
 23 24  1  0
 24 25  1  0
 20 26  1  0
 26 27  1  0
 27 28  2  0
 27 29  1  0
 29 30  1  0
 30 31  1  0
 30 32  1  0
 29 33  1  0
 33 34  1  0
 34 35  2  0
 34  3  1  0
 11  7  1  0
M  END
>  <molecule_chembl_id>  (1054) 
CHEMBL3622727

>  <canonical_smiles>  (1054) 
CC=C1NC(=O)c2csc(n2)C(C(C)C)NC(=O)CC(C=CCCS)OC(=O)C(C(C)C)NC1=O

>  <pchembl_value_mean>  (1054) 
7.44

>  <document_chembl_id>  (1054) 
CHEMBL3621100

$$$$

     RDKit          2D

 30 32  0  0  0  0  0  0  0  0999 V2000
    6.0000   -2.5981    0.0000 C   0  0  0  0  0  0  0  0  0  0  0  0
    5.2500   -1.2990    0.0000 C   0  0  0  0  0  0  0  0  0  0  0  0
    3.7500   -1.2990    0.0000 C   0  0  0  0  0  0  0  0  0  0  0  0
    3.0000    0.0000    0.0000 O   0  0  0  0  0  0  0  0  0  0  0  0
    1.5000    0.0000    0.0000 C   0  0  0  0  0  0  0  0  0  0  0  0
    0.7500   -1.2990    0.0000 C   0  0  0  0  0  0  0  0  0  0  0  0
   -0.7500   -1.2990    0.0000 C   0  0  0  0  0  0  0  0  0  0  0  0
   -1.5000    0.0000    0.0000 C   0  0  0  0  0  0  0  0  0  0  0  0
   -2.9672    0.3119    0.0000 O   0  0  0  0  0  0  0  0  0  0  0  0
   -3.1240    1.8037    0.0000 C   0  0  0  0  0  0  0  0  0  0  0  0
   -4.4231    2.5537    0.0000 C   0  0  0  0  0  0  0  0  0  0  0  0
   -5.7221    1.8037    0.0000 O   0  0  0  0  0  0  0  0  0  0  0  0
   -4.4231    4.0537    0.0000 N   0  0  0  0  0  0  0  0  0  0  0  0
   -5.7221    4.8037    0.0000 C   0  0  0  0  0  0  0  0  0  0  0  0
   -5.7221    6.3037    0.0000 C   0  0  0  0  0  0  0  0  0  0  0  0
   -4.4231    7.0537    0.0000 C   0  0  0  0  0  0  0  0  0  0  0  0
   -4.4231    8.5537    0.0000 C   0  0  0  0  0  0  0  0  0  0  0  0
   -5.7221    9.3037    0.0000 C   0  0  0  0  0  0  0  0  0  0  0  0
   -5.7221   10.8037    0.0000 C   0  0  0  0  0  0  0  0  0  0  0  0
   -7.0211   11.5537    0.0000 O   0  0  0  0  0  0  0  0  0  0  0  0
   -4.4231   11.5537    0.0000 N   0  0  0  0  0  0  0  0  0  0  0  0
   -4.4231   13.0537    0.0000 N   0  0  0  0  0  0  0  0  0  0  0  0
   -3.1240   13.8037    0.0000 C   0  0  0  0  0  0  0  0  0  0  0  0
   -3.1240   15.3037    0.0000 C   0  0  0  0  0  0  0  0  0  0  0  0
   -1.8250   16.0537    0.0000 C   0  0  0  0  0  0  0  0  0  0  0  0
   -7.0211    8.5537    0.0000 C   0  0  0  0  0  0  0  0  0  0  0  0
   -7.0211    7.0537    0.0000 C   0  0  0  0  0  0  0  0  0  0  0  0
   -1.7537    2.4138    0.0000 C   0  0  0  0  0  0  0  0  0  0  0  0
   -0.7500    1.2990    0.0000 C   0  0  0  0  0  0  0  0  0  0  0  0
    0.7500    1.2990    0.0000 C   0  0  0  0  0  0  0  0  0  0  0  0
  1  2  2  0
  2  3  1  0
  3  4  1  0
  4  5  1  0
  5  6  2  0
  6  7  1  0
  7  8  2  0
  8  9  1  0
  9 10  1  0
 10 11  1  0
 11 12  2  0
 11 13  1  0
 13 14  1  0
 14 15  1  0
 15 16  2  0
 16 17  1  0
 17 18  2  0
 18 19  1  0
 19 20  2  0
 19 21  1  0
 21 22  1  0
 22 23  1  0
 23 24  1  0
 24 25  1  0
 18 26  1  0
 26 27  2  0
 10 28  2  0
 28 29  1  0
 29 30  2  0
 30  5  1  0
 29  8  1  0
 27 15  1  0
M  END
>  <molecule_chembl_id>  (1055) 
CHEMBL5089744

>  <canonical_smiles>  (1055) 
C=CCOc1ccc2oc(C(=O)NCc3ccc(C(=O)NNCCC)cc3)cc2c1

>  <pchembl_value_mean>  (1055) 
7.45

>  <document_chembl_id>  (1055) 
CHEMBL5042504

$$$$

     RDKit          2D

 42 47  0  0  0  0  0  0  0  0999 V2000
    7.1311  -13.1563    0.0000 C   0  0  0  0  0  0  0  0  0  0  0  0
    7.8811  -11.8572    0.0000 C   0  0  0  0  0  0  0  0  0  0  0  0
    7.1311  -10.5582    0.0000 C   0  0  0  0  0  0  0  0  0  0  0  0
    5.6311  -10.5582    0.0000 O   0  0  0  0  0  0  0  0  0  0  0  0
    7.8811   -9.2592    0.0000 C   0  0  0  0  0  0  0  0  0  0  0  0
    7.1311   -7.9601    0.0000 C   0  0  0  0  0  0  0  0  0  0  0  0
    7.8811   -6.6611    0.0000 C   0  0  0  0  0  0  0  0  0  0  0  0
    7.1311   -5.3621    0.0000 C   0  0  0  0  0  0  0  0  0  0  0  0
    7.8811   -4.0630    0.0000 C   0  0  0  0  0  0  0  0  0  0  0  0
    7.1311   -2.7640    0.0000 C   0  0  0  0  0  0  0  0  0  0  0  0
    5.7386   -3.3215    0.0000 N   0  0  0  0  0  0  0  0  0  0  0  0
    4.2454   -3.4641    0.0000 C   0  0  0  0  0  0  0  0  0  0  0  0
    4.1740   -4.9624    0.0000 O   0  0  0  0  0  0  0  0  0  0  0  0
    2.7725   -3.1802    0.0000 C   0  0  0  0  0  0  0  0  0  0  0  0
    1.3386   -3.6206    0.0000 C   0  0  0  0  0  0  0  0  0  0  0  0
    0.7500   -1.2990    0.0000 C   0  0  0  0  0  0  0  0  0  0  0  0
    1.5000    0.0000    0.0000 C   0  0  0  0  0  0  0  0  0  0  0  0
    0.7500    1.2990    0.0000 C   0  0  0  0  0  0  0  0  0  0  0  0
   -0.7500    1.2990    0.0000 N   0  0  0  0  0  0  0  0  0  0  0  0
   -0.6786    2.7973    0.0000 C   0  0  0  0  0  0  0  0  0  0  0  0
   -0.1880    4.2148    0.0000 C   0  0  0  0  0  0  0  0  0  0  0  0
    0.6821    5.4367    0.0000 O   0  0  0  0  0  0  0  0  0  0  0  0
    1.8611    6.3639    0.0000 C   0  0  0  0  0  0  0  0  0  0  0  0
    3.2537    6.9214    0.0000 C   0  0  0  0  0  0  0  0  0  0  0  0
    4.7469    7.0640    0.0000 N   0  0  0  0  0  0  0  0  0  0  0  0
    6.2198    6.7801    0.0000 C   0  0  0  0  0  0  0  0  0  0  0  0
    7.5530    6.0928    0.0000 C   0  0  0  0  0  0  0  0  0  0  0  0
    8.6386    5.0577    0.0000 C   0  0  0  0  0  0  0  0  0  0  0  0
    9.3886    3.7586    0.0000 C   0  0  0  0  0  0  0  0  0  0  0  0
    9.7423    2.3009    0.0000 C   0  0  0  0  0  0  0  0  0  0  0  0
    8.4894    3.1258    0.0000 C   0  0  0  0  0  0  0  0  0  0  0  0
    7.5197    4.2702    0.0000 C   0  0  0  0  0  0  0  0  0  0  0  0
    7.1658    5.3416    0.0000 C   0  0  0  0  0  0  0  0  0  0  0  0
    5.8325    6.0289    0.0000 C   0  0  0  0  0  0  0  0  0  0  0  0
    4.9624    4.8070    0.0000 O   0  0  0  0  0  0  0  0  0  0  0  0
    9.6709    0.8026    0.0000 C   0  0  0  0  0  0  0  0  0  0  0  0
   10.7265   -0.2631    0.0000 C   0  0  0  0  0  0  0  0  0  0  0  0
   10.0392   -1.5963    0.0000 N   0  0  0  0  0  0  0  0  0  0  0  0
    8.3102   -1.8367    0.0000 C   0  0  0  0  0  0  0  0  0  0  0  0
    9.1803   -0.6149    0.0000 N   0  0  0  0  0  0  0  0  0  0  0  0
   -1.5000    0.0000    0.0000 C   0  0  0  0  0  0  0  0  0  0  0  0
   -0.7500   -1.2990    0.0000 C   0  0  0  0  0  0  0  0  0  0  0  0
  1  2  1  0
  2  3  1  0
  3  4  2  0
  3  5  1  0
  5  6  1  0
  6  7  1  0
  7  8  1  0
  8  9  1  0
  9 10  1  0
 10 11  1  0
 11 12  1  0
 12 13  2  0
 12 14  1  0
 14 15  1  0
 15 16  1  0
 16 17  1  0
 17 18  1  0
 18 19  1  0
 19 20  1  0
 20 21  1  0
 21 22  1  0
 22 23  1  0
 23 24  1  0
 24 25  1  0
 25 26  1  0
 26 27  2  0
 27 28  1  0
 28 29  1  0
 29 30  2  0
 30 31  1  0
 31 32  2  0
 32 33  1  0
 33 34  1  0
 34 35  2  0
 30 36  1  0
 36 37  2  0
 37 38  1  0
 38 39  2  0
 39 40  1  0
 19 41  1  0
 41 42  1  0
 39 10  1  0
 16 14  1  0
 34 25  1  0
 40 36  1  0
 42 16  1  0
 33 28  2  0
M  END
>  <molecule_chembl_id>  (1056) 
CHEMBL4853593

>  <canonical_smiles>  (1056) 
CCC(=O)CCCCCC1NC(=O)C2CC23CCN(CCOCCn2ccc4cc(ccc4c2=O)-c2cnc1[nH]2)CC3

>  <pchembl_value_mean>  (1056) 
7.46

>  <document_chembl_id>  (1056) 
CHEMBL4811291

$$$$

     RDKit          2D

 37 40  0  0  0  0  0  0  0  0999 V2000
   14.7990   -8.5442    0.0000 C   0  0  0  0  0  0  0  0  0  0  0  0
   13.2990   -8.5442    0.0000 C   0  0  0  0  0  0  0  0  0  0  0  0
   12.5490   -7.2452    0.0000 C   0  0  0  0  0  0  0  0  0  0  0  0
   13.2990   -5.9462    0.0000 O   0  0  0  0  0  0  0  0  0  0  0  0
   11.0490   -7.2452    0.0000 C   0  0  0  0  0  0  0  0  0  0  0  0
   10.2990   -5.9462    0.0000 C   0  0  0  0  0  0  0  0  0  0  0  0
    8.7990   -5.9462    0.0000 C   0  0  0  0  0  0  0  0  0  0  0  0
    8.0490   -4.6471    0.0000 C   0  0  0  0  0  0  0  0  0  0  0  0
    6.5490   -4.6471    0.0000 C   0  0  0  0  0  0  0  0  0  0  0  0
    5.7990   -3.3481    0.0000 C   0  0  0  0  0  0  0  0  0  0  0  0
    4.2990   -3.3481    0.0000 N   0  0  0  0  0  0  0  0  0  0  0  0
    3.5490   -2.0490    0.0000 C   0  0  0  0  0  0  0  0  0  0  0  0
    4.2990   -0.7500    0.0000 O   0  0  0  0  0  0  0  0  0  0  0  0
    2.0490   -2.0490    0.0000 C   0  0  0  0  0  0  0  0  0  0  0  0
    0.7500   -2.7990    0.0000 C   0  0  0  0  0  0  0  0  0  0  0  0
    0.7500   -1.2990    0.0000 C   0  0  0  0  0  0  0  0  0  0  0  0
    1.5000    0.0000    0.0000 C   0  0  0  0  0  0  0  0  0  0  0  0
    0.7500    1.2990    0.0000 C   0  0  0  0  0  0  0  0  0  0  0  0
   -0.7500    1.2990    0.0000 N   0  0  0  0  0  0  0  0  0  0  0  0
   -1.5000    2.5981    0.0000 C   0  0  0  0  0  0  0  0  0  0  0  0
   -0.7500    3.8971    0.0000 C   0  0  0  0  0  0  0  0  0  0  0  0
   -1.5000    0.0000    0.0000 C   0  0  0  0  0  0  0  0  0  0  0  0
   -0.7500   -1.2990    0.0000 C   0  0  0  0  0  0  0  0  0  0  0  0
    6.5490   -2.0490    0.0000 C   0  0  0  0  0  0  0  0  0  0  0  0
    5.9389   -0.6787    0.0000 N   0  0  0  0  0  0  0  0  0  0  0  0
    7.0537    0.3250    0.0000 C   0  0  0  0  0  0  0  0  0  0  0  0
    8.3527   -0.4250    0.0000 C   0  0  0  0  0  0  0  0  0  0  0  0
    9.7230    0.1851    0.0000 C   0  0  0  0  0  0  0  0  0  0  0  0
   10.9365   -0.6966    0.0000 C   0  0  0  0  0  0  0  0  0  0  0  0
   12.3069   -0.0865    0.0000 C   0  0  0  0  0  0  0  0  0  0  0  0
   12.4636    1.4053    0.0000 C   0  0  0  0  0  0  0  0  0  0  0  0
   11.2501    2.2870    0.0000 C   0  0  0  0  0  0  0  0  0  0  0  0
   11.4069    3.7788    0.0000 Cl  0  0  0  0  0  0  0  0  0  0  0  0
    9.8798    1.6769    0.0000 C   0  0  0  0  0  0  0  0  0  0  0  0
    8.6663    2.5585    0.0000 O   0  0  0  0  0  0  0  0  0  0  0  0
    8.8231    4.0503    0.0000 C   0  0  0  0  0  0  0  0  0  0  0  0
    8.0408   -1.8922    0.0000 N   0  0  0  0  0  0  0  0  0  0  0  0
  1  2  1  0
  2  3  1  0
  3  4  2  0
  3  5  1  0
  5  6  1  0
  6  7  1  0
  7  8  1  0
  8  9  1  0
  9 10  1  0
 10 11  1  0
 11 12  1  0
 12 13  2  0
 12 14  1  0
 14 15  1  0
 15 16  1  0
 16 17  1  0
 17 18  1  0
 18 19  1  0
 19 20  1  0
 20 21  1  0
 19 22  1  0
 22 23  1  0
 10 24  1  0
 24 25  2  0
 25 26  1  0
 26 27  2  0
 27 28  1  0
 28 29  2  0
 29 30  1  0
 30 31  2  0
 31 32  1  0
 32 33  1  0
 32 34  2  0
 34 35  1  0
 35 36  1  0
 27 37  1  0
 16 14  1  0
 37 24  1  0
 23 16  1  0
 34 28  1  0
M  END
>  <molecule_chembl_id>  (1057) 
CHEMBL4753648

>  <canonical_smiles>  (1057) 
CCC(=O)CCCCCC(NC(=O)C1CC12CCN(CC)CC2)c1ncc(-c2cccc(Cl)c2OC)[nH]1

>  <pchembl_value_mean>  (1057) 
7.47

>  <document_chembl_id>  (1057) 
CHEMBL4680369

$$$$

     RDKit          2D

 22 24  0  0  0  0  0  0  0  0999 V2000
    3.7500    1.2990    0.0000 O   0  0  0  0  0  0  0  0  0  0  0  0
    3.0000    0.0000    0.0000 C   0  0  0  0  0  0  0  0  0  0  0  0
    3.7500   -1.2990    0.0000 N   0  0  0  0  0  0  0  0  0  0  0  0
    5.2500   -1.2990    0.0000 O   0  0  0  0  0  0  0  0  0  0  0  0
    1.5000    0.0000    0.0000 C   0  0  0  0  0  0  0  0  0  0  0  0
    0.7500   -1.2990    0.0000 C   0  0  0  0  0  0  0  0  0  0  0  0
   -0.7500   -1.2990    0.0000 N   0  0  0  0  0  0  0  0  0  0  0  0
   -1.5000    0.0000    0.0000 C   0  0  0  0  0  0  0  0  0  0  0  0
   -3.0000    0.0000    0.0000 N   0  0  0  0  0  0  0  0  0  0  0  0
   -3.7500    1.2990    0.0000 C   0  0  0  0  0  0  0  0  0  0  0  0
   -5.1595    0.7860    0.0000 C   0  0  0  0  0  0  0  0  0  0  0  0
   -5.4200   -0.6912    0.0000 C   0  0  0  0  0  0  0  0  0  0  0  0
   -6.8296   -1.2042    0.0000 C   0  0  0  0  0  0  0  0  0  0  0  0
   -7.9786   -0.2401    0.0000 C   0  0  0  0  0  0  0  0  0  0  0  0
   -9.3882   -0.7531    0.0000 F   0  0  0  0  0  0  0  0  0  0  0  0
   -7.7181    1.2372    0.0000 C   0  0  0  0  0  0  0  0  0  0  0  0
   -6.3086    1.7502    0.0000 C   0  0  0  0  0  0  0  0  0  0  0  0
   -6.0481    3.2274    0.0000 Cl  0  0  0  0  0  0  0  0  0  0  0  0
   -4.0105    2.7762    0.0000 C   0  0  0  0  0  0  0  0  0  0  0  0
   -2.6009    2.2632    0.0000 C   0  0  0  0  0  0  0  0  0  0  0  0
   -0.7500    1.2990    0.0000 N   0  0  0  0  0  0  0  0  0  0  0  0
    0.7500    1.2990    0.0000 C   0  0  0  0  0  0  0  0  0  0  0  0
  1  2  2  0
  2  3  1  0
  3  4  1  0
  2  5  1  0
  5  6  2  0
  6  7  1  0
  7  8  2  0
  8  9  1  0
  9 10  1  0
 10 11  1  0
 11 12  2  0
 12 13  1  0
 13 14  2  0
 14 15  1  0
 14 16  1  0
 16 17  2  0
 17 18  1  0
 10 19  1  0
 19 20  1  0
  8 21  1  0
 21 22  2  0
 22  5  1  0
 20 10  1  0
 17 11  1  0
M  END
>  <molecule_chembl_id>  (1058) 
CHEMBL3656013

>  <canonical_smiles>  (1058) 
O=C(NO)c1cnc(NC2(c3ccc(F)cc3Cl)CC2)nc1

>  <pchembl_value_mean>  (1058) 
7.47

>  <document_chembl_id>  (1058) 
CHEMBL3639071

$$$$

     RDKit          2D

 32 35  0  0  0  0  0  0  0  0999 V2000
   -7.5000   -5.1962    0.0000 O   0  0  0  0  0  0  0  0  0  0  0  0
   -6.0000   -5.1962    0.0000 C   0  0  0  0  0  0  0  0  0  0  0  0
   -5.2500   -6.4952    0.0000 N   0  0  0  0  0  0  0  0  0  0  0  0
   -6.0000   -7.7942    0.0000 O   0  0  0  0  0  0  0  0  0  0  0  0
   -5.2500   -3.8971    0.0000 C   0  0  0  0  0  0  0  0  0  0  0  0
   -3.7500   -3.8971    0.0000 C   0  0  0  0  0  0  0  0  0  0  0  0
   -3.0000   -2.5981    0.0000 N   0  0  0  0  0  0  0  0  0  0  0  0
   -3.7500   -1.2990    0.0000 C   0  0  0  0  0  0  0  0  0  0  0  0
   -3.0000    0.0000    0.0000 N   0  0  0  0  0  0  0  0  0  0  0  0
   -3.7500    1.2990    0.0000 C   0  0  0  0  0  0  0  0  0  0  0  0
   -2.3405    1.8121    0.0000 C   0  0  0  0  0  0  0  0  0  0  0  0
   -1.1914    0.8479    0.0000 C   0  0  0  0  0  0  0  0  0  0  0  0
    0.2181    1.3609    0.0000 C   0  0  0  0  0  0  0  0  0  0  0  0
    0.4786    2.8381    0.0000 C   0  0  0  0  0  0  0  0  0  0  0  0
   -0.6704    3.8023    0.0000 C   0  0  0  0  0  0  0  0  0  0  0  0
   -2.0800    3.2893    0.0000 C   0  0  0  0  0  0  0  0  0  0  0  0
   -4.8991    0.3349    0.0000 C   0  0  0  0  0  0  0  0  0  0  0  0
   -6.3086    0.8479    0.0000 C   0  0  0  0  0  0  0  0  0  0  0  0
   -6.5691    2.3251    0.0000 N   0  0  0  0  0  0  0  0  0  0  0  0
   -7.9786    2.8381    0.0000 C   0  0  0  0  0  0  0  0  0  0  0  0
   -9.1277    1.8739    0.0000 O   0  0  0  0  0  0  0  0  0  0  0  0
   -8.2391    4.3153    0.0000 N   0  0  0  0  0  0  0  0  0  0  0  0
   -9.6486    4.8284    0.0000 C   0  0  0  0  0  0  0  0  0  0  0  0
   -9.9091    6.3056    0.0000 C   0  0  0  0  0  0  0  0  0  0  0  0
  -11.3186    6.8186    0.0000 C   0  0  0  0  0  0  0  0  0  0  0  0
  -12.4677    5.8544    0.0000 C   0  0  0  0  0  0  0  0  0  0  0  0
  -12.2072    4.3772    0.0000 C   0  0  0  0  0  0  0  0  0  0  0  0
  -10.7977    3.8642    0.0000 C   0  0  0  0  0  0  0  0  0  0  0  0
   -5.4200    3.2893    0.0000 C   0  0  0  0  0  0  0  0  0  0  0  0
   -4.0105    2.7762    0.0000 C   0  0  0  0  0  0  0  0  0  0  0  0
   -5.2500   -1.2990    0.0000 N   0  0  0  0  0  0  0  0  0  0  0  0
   -6.0000   -2.5981    0.0000 C   0  0  0  0  0  0  0  0  0  0  0  0
  1  2  2  0
  2  3  1  0
  3  4  1  0
  2  5  1  0
  5  6  2  0
  6  7  1  0
  7  8  2  0
  8  9  1  0
  9 10  1  0
 10 11  1  0
 11 12  2  0
 12 13  1  0
 13 14  2  0
 14 15  1  0
 15 16  2  0
 10 17  1  0
 17 18  1  0
 18 19  1  0
 19 20  1  0
 20 21  2  0
 20 22  1  0
 22 23  1  0
 23 24  2  0
 24 25  1  0
 25 26  2  0
 26 27  1  0
 27 28  2  0
 19 29  1  0
 29 30  1  0
  8 31  1  0
 31 32  2  0
 32  5  1  0
 30 10  1  0
 16 11  1  0
 28 23  1  0
M  END
>  <molecule_chembl_id>  (1059) 
CHEMBL3963102

>  <canonical_smiles>  (1059) 
O=C(NO)c1cnc(NC2(c3ccccc3)CCN(C(=O)Nc3ccccc3)CC2)nc1

>  <pchembl_value_mean>  (1059) 
7.47

>  <document_chembl_id>  (1059) 
CHEMBL3886590

$$$$

     RDKit          2D

 20 21  0  0  0  0  0  0  0  0999 V2000
   -2.5981  -12.6073    0.0000 O   0  0  0  0  0  0  0  0  0  0  0  0
   -3.8971  -11.8573    0.0000 C   0  0  0  0  0  0  0  0  0  0  0  0
   -3.8971  -10.3573    0.0000 C   0  0  0  0  0  0  0  0  0  0  0  0
   -2.5981   -9.6073    0.0000 C   0  0  0  0  0  0  0  0  0  0  0  0
   -2.5981   -8.1073    0.0000 C   0  0  0  0  0  0  0  0  0  0  0  0
   -1.2990   -7.3573    0.0000 C   0  0  0  0  0  0  0  0  0  0  0  0
   -1.2990   -5.8573    0.0000 C   0  0  0  0  0  0  0  0  0  0  0  0
   -0.0000   -5.1073    0.0000 C   0  0  0  0  0  0  0  0  0  0  0  0
   -0.0000   -3.6073    0.0000 C   0  0  0  0  0  0  0  0  0  0  0  0
    1.2135   -2.7256    0.0000 N   0  0  0  0  0  0  0  0  0  0  0  0
    0.7500   -1.2990    0.0000 C   0  0  0  0  0  0  0  0  0  0  0  0
    1.5000    0.0000    0.0000 C   0  0  0  0  0  0  0  0  0  0  0  0
    0.7500    1.2990    0.0000 C   0  0  0  0  0  0  0  0  0  0  0  0
   -0.7500    1.2990    0.0000 C   0  0  0  0  0  0  0  0  0  0  0  0
   -1.5000    2.5981    0.0000 Br  0  0  0  0  0  0  0  0  0  0  0  0
   -1.5000    0.0000    0.0000 C   0  0  0  0  0  0  0  0  0  0  0  0
   -0.7500   -1.2990    0.0000 C   0  0  0  0  0  0  0  0  0  0  0  0
   -1.2135   -2.7256    0.0000 N   0  0  0  0  0  0  0  0  0  0  0  0
   -5.1962  -12.6073    0.0000 N   0  0  0  0  0  0  0  0  0  0  0  0
   -5.1962  -14.1073    0.0000 O   0  0  0  0  0  0  0  0  0  0  0  0
  1  2  2  0
  2  3  1  0
  3  4  1  0
  4  5  1  0
  5  6  1  0
  6  7  1  0
  7  8  1  0
  8  9  1  0
  9 10  2  0
 10 11  1  0
 11 12  2  0
 12 13  1  0
 13 14  2  0
 14 15  1  0
 14 16  1  0
 16 17  2  0
 17 18  1  0
  2 19  1  0
 19 20  1  0
 18  9  1  0
 17 11  1  0
M  END
>  <molecule_chembl_id>  (1060) 
CHEMBL2414098

>  <canonical_smiles>  (1060) 
O=C(CCCCCCc1nc2ccc(Br)cc2[nH]1)NO

>  <pchembl_value_mean>  (1060) 
7.47

>  <document_chembl_id>  (1060) 
CHEMBL2413017

$$$$

     RDKit          2D

 33 35  0  0  0  0  0  0  0  0999 V2000
    3.7500   -1.2990    0.0000 C   0  0  0  0  0  0  0  0  0  0  0  0
    3.0000    0.0000    0.0000 O   0  0  0  0  0  0  0  0  0  0  0  0
    1.5000    0.0000    0.0000 C   0  0  0  0  0  0  0  0  0  0  0  0
    0.7500   -1.2990    0.0000 C   0  0  0  0  0  0  0  0  0  0  0  0
   -0.7500   -1.2990    0.0000 C   0  0  0  0  0  0  0  0  0  0  0  0
   -1.5000    0.0000    0.0000 C   0  0  0  0  0  0  0  0  0  0  0  0
   -0.7500    1.2990    0.0000 C   0  0  0  0  0  0  0  0  0  0  0  0
   -1.7537    2.4138    0.0000 C   0  0  0  0  0  0  0  0  0  0  0  0
   -3.1240    1.8037    0.0000 C   0  0  0  0  0  0  0  0  0  0  0  0
   -2.9672    0.3119    0.0000 N   0  0  0  0  0  0  0  0  0  0  0  0
   -4.0819   -0.6918    0.0000 C   0  0  0  0  0  0  0  0  0  0  0  0
   -5.5085   -0.2283    0.0000 C   0  0  0  0  0  0  0  0  0  0  0  0
   -6.6232   -1.2320    0.0000 O   0  0  0  0  0  0  0  0  0  0  0  0
   -8.0498   -0.7685    0.0000 C   0  0  0  0  0  0  0  0  0  0  0  0
   -8.3617    0.6987    0.0000 C   0  0  0  0  0  0  0  0  0  0  0  0
   -9.7883    1.1623    0.0000 C   0  0  0  0  0  0  0  0  0  0  0  0
  -10.9030    0.1586    0.0000 C   0  0  0  0  0  0  0  0  0  0  0  0
  -12.3296    0.6221    0.0000 N   0  0  0  0  0  0  0  0  0  0  0  0
  -12.6414    2.0893    0.0000 C   0  0  0  0  0  0  0  0  0  0  0  0
  -11.5267    3.0930    0.0000 O   0  0  0  0  0  0  0  0  0  0  0  0
  -14.0680    2.5529    0.0000 C   0  0  0  0  0  0  0  0  0  0  0  0
  -14.3799    4.0201    0.0000 C   0  0  0  0  0  0  0  0  0  0  0  0
  -15.8065    4.4836    0.0000 C   0  0  0  0  0  0  0  0  0  0  0  0
  -16.1184    5.9508    0.0000 C   0  0  0  0  0  0  0  0  0  0  0  0
  -17.5449    6.4143    0.0000 C   0  0  0  0  0  0  0  0  0  0  0  0
  -17.8568    7.8816    0.0000 C   0  0  0  0  0  0  0  0  0  0  0  0
  -19.2834    8.3451    0.0000 C   0  0  0  0  0  0  0  0  0  0  0  0
  -20.3981    7.3414    0.0000 O   0  0  0  0  0  0  0  0  0  0  0  0
  -19.5953    9.8123    0.0000 N   0  0  0  0  0  0  0  0  0  0  0  0
  -21.0218   10.2758    0.0000 O   0  0  0  0  0  0  0  0  0  0  0  0
  -10.5911   -1.3086    0.0000 C   0  0  0  0  0  0  0  0  0  0  0  0
   -9.1645   -1.7722    0.0000 C   0  0  0  0  0  0  0  0  0  0  0  0
    0.7500    1.2990    0.0000 C   0  0  0  0  0  0  0  0  0  0  0  0
  1  2  1  0
  2  3  1  0
  3  4  2  0
  4  5  1  0
  5  6  2  0
  6  7  1  0
  7  8  1  0
  8  9  2  0
  9 10  1  0
 10 11  1  0
 11 12  1  0
 12 13  1  0
 13 14  1  0
 14 15  2  0
 15 16  1  0
 16 17  2  0
 17 18  1  0
 18 19  1  0
 19 20  2  0
 19 21  1  0
 21 22  1  0
 22 23  1  0
 23 24  1  0
 24 25  1  0
 25 26  1  0
 26 27  1  0
 27 28  2  0
 27 29  1  0
 29 30  1  0
 17 31  1  0
 31 32  2  0
  7 33  2  0
 33  3  1  0
 10  6  1  0
 32 14  1  0
M  END
>  <molecule_chembl_id>  (1061) 
CHEMBL4159460

>  <canonical_smiles>  (1061) 
COc1ccc2c(ccn2CCOc2ccc(NC(=O)CCCCCCC(=O)NO)cc2)c1

>  <pchembl_value_mean>  (1061) 
7.48

>  <document_chembl_id>  (1061) 
CHEMBL4138235

$$$$

     RDKit          2D

 21 21  0  0  0  0  0  0  0  0999 V2000
   10.5000   -2.5981    0.0000 O   0  0  0  0  0  0  0  0  0  0  0  0
    9.7500   -3.8971    0.0000 C   0  0  0  0  0  0  0  0  0  0  0  0
    8.2500   -3.8971    0.0000 C   0  0  0  0  0  0  0  0  0  0  0  0
    7.5000   -2.5981    0.0000 C   0  0  0  0  0  0  0  0  0  0  0  0
    6.0000   -2.5981    0.0000 N   0  0  0  0  0  0  0  0  0  0  0  0
    5.2500   -1.2990    0.0000 C   0  0  0  0  0  0  0  0  0  0  0  0
    6.0000    0.0000    0.0000 O   0  0  0  0  0  0  0  0  0  0  0  0
    3.7500   -1.2990    0.0000 C   0  0  0  0  0  0  0  0  0  0  0  0
    3.0000    0.0000    0.0000 C   0  0  0  0  0  0  0  0  0  0  0  0
    1.5000    0.0000    0.0000 C   0  0  0  0  0  0  0  0  0  0  0  0
    0.7500   -1.2990    0.0000 C   0  0  0  0  0  0  0  0  0  0  0  0
   -0.7500   -1.2990    0.0000 C   0  0  0  0  0  0  0  0  0  0  0  0
   -1.5000    0.0000    0.0000 C   0  0  0  0  0  0  0  0  0  0  0  0
   -3.0000    0.0000    0.0000 O   0  0  0  0  0  0  0  0  0  0  0  0
   -0.7500    1.2990    0.0000 C   0  0  0  0  0  0  0  0  0  0  0  0
   -1.5000    2.5981    0.0000 Br  0  0  0  0  0  0  0  0  0  0  0  0
    0.7500    1.2990    0.0000 C   0  0  0  0  0  0  0  0  0  0  0  0
    3.0000   -2.5981    0.0000 N   0  0  0  0  0  0  0  0  0  0  0  0
    3.7500   -3.8971    0.0000 O   0  0  0  0  0  0  0  0  0  0  0  0
   10.5000   -5.1962    0.0000 N   0  0  0  0  0  0  0  0  0  0  0  0
   12.0000   -5.1962    0.0000 O   0  0  0  0  0  0  0  0  0  0  0  0
  1  2  2  0
  2  3  1  0
  3  4  1  0
  4  5  1  0
  5  6  1  0
  6  7  2  0
  6  8  1  0
  8  9  1  0
  9 10  1  0
 10 11  2  0
 11 12  1  0
 12 13  2  0
 13 14  1  0
 13 15  1  0
 15 16  1  0
 15 17  2  0
  8 18  2  3
 18 19  1  0
  2 20  1  0
 20 21  1  0
 17 10  1  0
M  END
>  <molecule_chembl_id>  (1062) 
CHEMBL2047684

>  <canonical_smiles>  (1062) 
O=C(CCNC(=O)C(Cc1ccc(O)c(Br)c1)=NO)NO

>  <pchembl_value_mean>  (1062) 
7.48

>  <document_chembl_id>  (1062) 
CHEMBL4673384

$$$$

     RDKit          2D

 26 28  0  0  0  0  0  0  0  0999 V2000
  -12.9904   -9.6073    0.0000 C   0  0  0  0  0  0  0  0  0  0  0  0
  -11.6913  -10.3573    0.0000 C   0  0  0  0  0  0  0  0  0  0  0  0
  -10.3923   -9.6073    0.0000 C   0  0  0  0  0  0  0  0  0  0  0  0
   -9.0933  -10.3573    0.0000 N   0  0  0  0  0  0  0  0  0  0  0  0
   -7.7942   -9.6073    0.0000 N   0  0  0  0  0  0  0  0  0  0  0  0
   -6.4952  -10.3573    0.0000 C   0  0  0  0  0  0  0  0  0  0  0  0
   -6.4952  -11.8573    0.0000 O   0  0  0  0  0  0  0  0  0  0  0  0
   -5.1962   -9.6073    0.0000 C   0  0  0  0  0  0  0  0  0  0  0  0
   -5.1962   -8.1073    0.0000 C   0  0  0  0  0  0  0  0  0  0  0  0
   -3.8971   -7.3573    0.0000 C   0  0  0  0  0  0  0  0  0  0  0  0
   -2.5981   -8.1073    0.0000 C   0  0  0  0  0  0  0  0  0  0  0  0
   -1.2990   -7.3573    0.0000 C   0  0  0  0  0  0  0  0  0  0  0  0
   -1.2990   -5.8573    0.0000 N   0  0  0  0  0  0  0  0  0  0  0  0
   -0.0000   -5.1073    0.0000 C   0  0  0  0  0  0  0  0  0  0  0  0
    1.2990   -5.8573    0.0000 O   0  0  0  0  0  0  0  0  0  0  0  0
   -0.0000   -3.6073    0.0000 C   0  0  0  0  0  0  0  0  0  0  0  0
    1.2135   -2.7256    0.0000 N   0  0  0  0  0  0  0  0  0  0  0  0
    0.7500   -1.2990    0.0000 C   0  0  0  0  0  0  0  0  0  0  0  0
    1.5000    0.0000    0.0000 C   0  0  0  0  0  0  0  0  0  0  0  0
    0.7500    1.2990    0.0000 C   0  0  0  0  0  0  0  0  0  0  0  0
   -0.7500    1.2990    0.0000 C   0  0  0  0  0  0  0  0  0  0  0  0
   -1.5000    0.0000    0.0000 C   0  0  0  0  0  0  0  0  0  0  0  0
   -0.7500   -1.2990    0.0000 C   0  0  0  0  0  0  0  0  0  0  0  0
   -1.2135   -2.7256    0.0000 N   0  0  0  0  0  0  0  0  0  0  0  0
   -2.5981   -9.6073    0.0000 C   0  0  0  0  0  0  0  0  0  0  0  0
   -3.8971  -10.3573    0.0000 C   0  0  0  0  0  0  0  0  0  0  0  0
  1  2  1  0
  2  3  1  0
  3  4  1  0
  4  5  1  0
  5  6  1  0
  6  7  2  0
  6  8  1  0
  8  9  2  0
  9 10  1  0
 10 11  2  0
 11 12  1  0
 12 13  1  0
 13 14  1  0
 14 15  2  0
 14 16  1  0
 16 17  2  0
 17 18  1  0
 18 19  2  0
 19 20  1  0
 20 21  2  0
 21 22  1  0
 22 23  2  0
 23 24  1  0
 11 25  1  0
 25 26  2  0
 26  8  1  0
 24 16  1  0
 23 18  1  0
M  END
>  <molecule_chembl_id>  (1063) 
CHEMBL5081353

>  <canonical_smiles>  (1063) 
CCCNNC(=O)c1ccc(CNC(=O)c2nc3ccccc3[nH]2)cc1

>  <pchembl_value_mean>  (1063) 
7.48

>  <document_chembl_id>  (1063) 
CHEMBL5042504

$$$$

     RDKit          2D

 35 37  0  0  0  0  0  0  0  0999 V2000
    3.0000  -12.9904    0.0000 O   0  0  0  0  0  0  0  0  0  0  0  0
    1.5000  -12.9904    0.0000 C   0  0  0  0  0  0  0  0  0  0  0  0
    0.7500  -11.6913    0.0000 C   0  0  0  0  0  0  0  0  0  0  0  0
    1.5000  -10.3923    0.0000 C   0  0  0  0  0  0  0  0  0  0  0  0
    0.7500   -9.0933    0.0000 C   0  0  0  0  0  0  0  0  0  0  0  0
    1.5000   -7.7942    0.0000 C   0  0  0  0  0  0  0  0  0  0  0  0
    0.7500   -6.4952    0.0000 C   0  0  0  0  0  0  0  0  0  0  0  0
    1.5000   -5.1962    0.0000 C   0  0  0  0  0  0  0  0  0  0  0  0
    0.7500   -3.8971    0.0000 N   0  0  0  0  0  0  0  0  0  0  0  0
    1.5000   -2.5981    0.0000 C   0  0  0  0  0  0  0  0  0  0  0  0
    0.7500   -1.2990    0.0000 C   0  0  0  0  0  0  0  0  0  0  0  0
    1.5000    0.0000    0.0000 C   0  0  0  0  0  0  0  0  0  0  0  0
    0.7500    1.2990    0.0000 C   0  0  0  0  0  0  0  0  0  0  0  0
   -0.7500    1.2990    0.0000 C   0  0  0  0  0  0  0  0  0  0  0  0
   -1.5000    2.5981    0.0000 F   0  0  0  0  0  0  0  0  0  0  0  0
   -1.5000    0.0000    0.0000 C   0  0  0  0  0  0  0  0  0  0  0  0
   -0.7500   -1.2990    0.0000 C   0  0  0  0  0  0  0  0  0  0  0  0
   -0.7500   -3.8971    0.0000 C   0  0  0  0  0  0  0  0  0  0  0  0
   -1.6317   -5.1106    0.0000 N   0  0  0  0  0  0  0  0  0  0  0  0
   -3.0583   -4.6471    0.0000 C   0  0  0  0  0  0  0  0  0  0  0  0
   -3.0583   -3.1471    0.0000 C   0  0  0  0  0  0  0  0  0  0  0  0
   -4.2718   -2.2654    0.0000 C   0  0  0  0  0  0  0  0  0  0  0  0
   -4.1150   -0.7737    0.0000 O   0  0  0  0  0  0  0  0  0  0  0  0
   -5.6421   -2.8755    0.0000 N   0  0  0  0  0  0  0  0  0  0  0  0
   -6.8556   -1.9939    0.0000 C   0  0  0  0  0  0  0  0  0  0  0  0
   -8.2260   -2.6040    0.0000 C   0  0  0  0  0  0  0  0  0  0  0  0
   -9.4395   -1.7223    0.0000 C   0  0  0  0  0  0  0  0  0  0  0  0
  -10.8098   -2.3324    0.0000 N   0  0  0  0  0  0  0  0  0  0  0  0
  -11.1217   -3.7996    0.0000 C   0  0  0  0  0  0  0  0  0  0  0  0
  -12.6134   -3.9564    0.0000 C   0  0  0  0  0  0  0  0  0  0  0  0
  -13.2235   -2.5861    0.0000 N   0  0  0  0  0  0  0  0  0  0  0  0
  -12.1088   -1.5824    0.0000 C   0  0  0  0  0  0  0  0  0  0  0  0
   -1.6317   -2.6836    0.0000 S   0  0  0  0  0  0  0  0  0  0  0  0
    0.7500  -14.2894    0.0000 N   0  0  0  0  0  0  0  0  0  0  0  0
    1.5000  -15.5885    0.0000 O   0  0  0  0  0  0  0  0  0  0  0  0
  1  2  2  0
  2  3  1  0
  3  4  1  0
  4  5  1  0
  5  6  1  0
  6  7  1  0
  7  8  1  0
  8  9  1  0
  9 10  1  0
 10 11  1  0
 11 12  2  0
 12 13  1  0
 13 14  2  0
 14 15  1  0
 14 16  1  0
 16 17  2  0
  9 18  1  0
 18 19  2  0
 19 20  1  0
 20 21  2  0
 21 22  1  0
 22 23  2  0
 22 24  1  0
 24 25  1  0
 25 26  1  0
 26 27  1  0
 27 28  1  0
 28 29  1  0
 29 30  2  0
 30 31  1  0
 31 32  2  0
 21 33  1  0
  2 34  1  0
 34 35  1  0
 17 11  1  0
 33 18  1  0
 32 28  1  0
M  END
>  <molecule_chembl_id>  (1064) 
CHEMBL4163681

>  <canonical_smiles>  (1064) 
O=C(CCCCCCN(Cc1ccc(F)cc1)c1ncc(C(=O)NCCCn2ccnc2)s1)NO

>  <pchembl_value_mean>  (1064) 
7.48

>  <document_chembl_id>  (1064) 
CHEMBL4138269

$$$$

     RDKit          2D

 36 37  0  0  0  0  0  0  0  0999 V2000
   -0.7500  -16.8875    0.0000 O   0  0  0  0  0  0  0  0  0  0  0  0
    0.7500  -16.8875    0.0000 C   0  0  0  0  0  0  0  0  0  0  0  0
    1.5000  -15.5885    0.0000 N   0  0  0  0  0  0  0  0  0  0  0  0
    0.7500  -14.2894    0.0000 C   0  0  0  0  0  0  0  0  0  0  0  0
    1.5000  -12.9904    0.0000 C   0  0  0  0  0  0  0  0  0  0  0  0
    0.7500  -11.6913    0.0000 S   0  0  0  0  0  0  0  0  0  0  0  0
    1.5000  -10.3923    0.0000 S   0  0  0  0  0  0  0  0  0  0  0  0
    0.7500   -9.0933    0.0000 C   0  0  0  0  0  0  0  0  0  0  0  0
    1.5000   -7.7942    0.0000 C   0  0  0  0  0  0  0  0  0  0  0  0
    0.7500   -6.4952    0.0000 N   0  0  0  0  0  0  0  0  0  0  0  0
    1.5000   -5.1962    0.0000 C   0  0  0  0  0  0  0  0  0  0  0  0
    3.0000   -5.1962    0.0000 O   0  0  0  0  0  0  0  0  0  0  0  0
    0.7500   -3.8971    0.0000 C   0  0  0  0  0  0  0  0  0  0  0  0
    1.5000   -2.5981    0.0000 C   0  0  0  0  0  0  0  0  0  0  0  0
    0.7500   -1.2990    0.0000 C   0  0  0  0  0  0  0  0  0  0  0  0
    1.5000    0.0000    0.0000 C   0  0  0  0  0  0  0  0  0  0  0  0
    0.7500    1.2990    0.0000 C   0  0  0  0  0  0  0  0  0  0  0  0
   -0.7500    1.2990    0.0000 C   0  0  0  0  0  0  0  0  0  0  0  0
   -1.5000    2.5981    0.0000 O   0  0  0  0  0  0  0  0  0  0  0  0
   -1.5000    0.0000    0.0000 C   0  0  0  0  0  0  0  0  0  0  0  0
   -3.0000    0.0000    0.0000 Br  0  0  0  0  0  0  0  0  0  0  0  0
   -0.7500   -1.2990    0.0000 C   0  0  0  0  0  0  0  0  0  0  0  0
   -0.7500   -3.8971    0.0000 N   0  0  0  0  0  0  0  0  0  0  0  0
   -1.5000   -5.1962    0.0000 O   0  0  0  0  0  0  0  0  0  0  0  0
    1.5000  -18.1865    0.0000 C   0  0  0  0  0  0  0  0  0  0  0  0
    0.7500  -19.4856    0.0000 C   0  0  0  0  0  0  0  0  0  0  0  0
    1.5000  -20.7846    0.0000 C   0  0  0  0  0  0  0  0  0  0  0  0
    0.7500  -22.0836    0.0000 C   0  0  0  0  0  0  0  0  0  0  0  0
    1.5000  -23.3827    0.0000 C   0  0  0  0  0  0  0  0  0  0  0  0
    3.0000  -23.3827    0.0000 C   0  0  0  0  0  0  0  0  0  0  0  0
    3.7500  -24.6817    0.0000 O   0  0  0  0  0  0  0  0  0  0  0  0
    3.7500  -22.0836    0.0000 C   0  0  0  0  0  0  0  0  0  0  0  0
    5.2500  -22.0836    0.0000 Br  0  0  0  0  0  0  0  0  0  0  0  0
    3.0000  -20.7846    0.0000 C   0  0  0  0  0  0  0  0  0  0  0  0
    3.0000  -18.1865    0.0000 N   0  0  0  0  0  0  0  0  0  0  0  0
    3.7500  -19.4856    0.0000 O   0  0  0  0  0  0  0  0  0  0  0  0
  1  2  2  0
  2  3  1  0
  3  4  1  0
  4  5  1  0
  5  6  1  0
  6  7  1  0
  7  8  1  0
  8  9  1  0
  9 10  1  0
 10 11  1  0
 11 12  2  0
 11 13  1  0
 13 14  1  0
 14 15  1  0
 15 16  2  0
 16 17  1  0
 17 18  2  0
 18 19  1  0
 18 20  1  0
 20 21  1  0
 20 22  2  0
 13 23  2  3
 23 24  1  0
  2 25  1  0
 25 26  1  0
 26 27  1  0
 27 28  2  0
 28 29  1  0
 29 30  2  0
 30 31  1  0
 30 32  1  0
 32 33  1  0
 32 34  2  0
 25 35  2  3
 35 36  1  0
 22 15  1  0
 34 27  1  0
M  END
>  <molecule_chembl_id>  (1065) 
CHEMBL83747

>  <canonical_smiles>  (1065) 
O=C(NCCSSCCNC(=O)C(Cc1ccc(O)c(Br)c1)=NO)C(Cc1ccc(O)c(Br)c1)=NO

>  <pchembl_value_mean>  (1065) 
7.48

>  <document_chembl_id>  (1065) 
CHEMBL4673384

$$$$

     RDKit          2D

 25 26  0  0  0  0  0  0  0  0999 V2000
   -3.0000   -5.1962    0.0000 C   0  0  0  0  0  0  0  0  0  0  0  0
   -1.5000   -5.1962    0.0000 C   0  0  0  0  0  0  0  0  0  0  0  0
   -0.7500   -3.8971    0.0000 S   0  0  0  0  0  0  0  0  0  0  0  0
    0.7500   -3.8971    0.0000 C   0  0  0  0  0  0  0  0  0  0  0  0
    1.5000   -2.5981    0.0000 N   0  0  0  0  0  0  0  0  0  0  0  0
    0.7500   -1.2990    0.0000 C   0  0  0  0  0  0  0  0  0  0  0  0
    1.5000    0.0000    0.0000 C   0  0  0  0  0  0  0  0  0  0  0  0
    0.7500    1.2990    0.0000 C   0  0  0  0  0  0  0  0  0  0  0  0
   -0.7500    1.2990    0.0000 C   0  0  0  0  0  0  0  0  0  0  0  0
   -1.5000    0.0000    0.0000 C   0  0  0  0  0  0  0  0  0  0  0  0
   -0.7500   -1.2990    0.0000 C   0  0  0  0  0  0  0  0  0  0  0  0
    1.5000   -5.1962    0.0000 C   0  0  0  0  0  0  0  0  0  0  0  0
    0.7500   -6.4952    0.0000 C   0  0  0  0  0  0  0  0  0  0  0  0
   -0.0000   -7.7942    0.0000 N   0  0  0  0  0  0  0  0  0  0  0  0
    3.0000   -5.1962    0.0000 C   0  0  0  0  0  0  0  0  0  0  0  0
    3.7500   -3.8971    0.0000 O   0  0  0  0  0  0  0  0  0  0  0  0
    3.7500   -6.4952    0.0000 N   0  0  0  0  0  0  0  0  0  0  0  0
    5.2500   -6.4952    0.0000 C   0  0  0  0  0  0  0  0  0  0  0  0
    6.0000   -7.7942    0.0000 C   0  0  0  0  0  0  0  0  0  0  0  0
    7.5000   -7.7942    0.0000 C   0  0  0  0  0  0  0  0  0  0  0  0
    8.2500   -6.4952    0.0000 C   0  0  0  0  0  0  0  0  0  0  0  0
    9.7500   -6.4952    0.0000 O   0  0  0  0  0  0  0  0  0  0  0  0
   10.5000   -7.7942    0.0000 C   0  0  0  0  0  0  0  0  0  0  0  0
    7.5000   -5.1962    0.0000 C   0  0  0  0  0  0  0  0  0  0  0  0
    6.0000   -5.1962    0.0000 C   0  0  0  0  0  0  0  0  0  0  0  0
  1  2  1  0
  2  3  1  0
  3  4  1  0
  4  5  1  0
  5  6  1  0
  6  7  2  0
  7  8  1  0
  8  9  2  0
  9 10  1  0
 10 11  2  0
  4 12  2  3
 12 13  1  0
 13 14  3  0
 12 15  1  0
 15 16  2  0
 15 17  1  0
 17 18  1  0
 18 19  2  0
 19 20  1  0
 20 21  2  0
 21 22  1  0
 22 23  1  0
 21 24  1  0
 24 25  2  0
 11  6  1  0
 25 18  1  0
M  END
>  <molecule_chembl_id>  (1066) 
CHEMBL4163794

>  <canonical_smiles>  (1066) 
CCSC(Nc1ccccc1)=C(C#N)C(=O)Nc1ccc(OC)cc1

>  <pchembl_value_mean>  (1066) 
7.5

>  <document_chembl_id>  (1066) 
CHEMBL4145553

$$$$

     RDKit          2D

 27 29  0  0  0  0  0  0  0  0999 V2000
  -10.7086   -9.9084    0.0000 O   0  0  0  0  0  0  0  0  0  0  0  0
   -9.5939  -10.9121    0.0000 C   0  0  0  0  0  0  0  0  0  0  0  0
   -8.1673  -10.4486    0.0000 C   0  0  0  0  0  0  0  0  0  0  0  0
   -7.8555   -8.9814    0.0000 C   0  0  0  0  0  0  0  0  0  0  0  0
   -6.4289   -8.5179    0.0000 C   0  0  0  0  0  0  0  0  0  0  0  0
   -6.1170   -7.0506    0.0000 C   0  0  0  0  0  0  0  0  0  0  0  0
   -4.6904   -6.5871    0.0000 C   0  0  0  0  0  0  0  0  0  0  0  0
   -4.3786   -5.1199    0.0000 C   0  0  0  0  0  0  0  0  0  0  0  0
   -2.9520   -4.6564    0.0000 C   0  0  0  0  0  0  0  0  0  0  0  0
   -1.8373   -5.6601    0.0000 O   0  0  0  0  0  0  0  0  0  0  0  0
   -2.6401   -3.1891    0.0000 N   0  0  0  0  0  0  0  0  0  0  0  0
   -1.2135   -2.7256    0.0000 C   0  0  0  0  0  0  0  0  0  0  0  0
   -0.0000   -3.6073    0.0000 N   0  0  0  0  0  0  0  0  0  0  0  0
    1.2135   -2.7256    0.0000 N   0  0  0  0  0  0  0  0  0  0  0  0
    0.7500   -1.2990    0.0000 C   0  0  0  0  0  0  0  0  0  0  0  0
    1.5000    0.0000    0.0000 C   0  0  0  0  0  0  0  0  0  0  0  0
    0.7500    1.2990    0.0000 C   0  0  0  0  0  0  0  0  0  0  0  0
    1.5000    2.5981    0.0000 C   0  0  0  0  0  0  0  0  0  0  0  0
    0.8899    3.9684    0.0000 C   0  0  0  0  0  0  0  0  0  0  0  0
    2.0046    4.9721    0.0000 C   0  0  0  0  0  0  0  0  0  0  0  0
    3.3037    4.2221    0.0000 S   0  0  0  0  0  0  0  0  0  0  0  0
    2.9918    2.7549    0.0000 C   0  0  0  0  0  0  0  0  0  0  0  0
   -0.7500    1.2990    0.0000 C   0  0  0  0  0  0  0  0  0  0  0  0
   -1.5000    0.0000    0.0000 C   0  0  0  0  0  0  0  0  0  0  0  0
   -0.7500   -1.2990    0.0000 C   0  0  0  0  0  0  0  0  0  0  0  0
   -9.9058  -12.3794    0.0000 N   0  0  0  0  0  0  0  0  0  0  0  0
  -11.3324  -12.8429    0.0000 O   0  0  0  0  0  0  0  0  0  0  0  0
  1  2  2  0
  2  3  1  0
  3  4  1  0
  4  5  1  0
  5  6  1  0
  6  7  1  0
  7  8  1  0
  8  9  1  0
  9 10  2  0
  9 11  1  0
 11 12  1  0
 12 13  2  0
 13 14  1  0
 14 15  1  0
 15 16  2  0
 16 17  1  0
 17 18  1  0
 18 19  1  0
 19 20  2  0
 20 21  1  0
 21 22  1  0
 17 23  2  0
 23 24  1  0
 24 25  2  0
  2 26  1  0
 26 27  1  0
 25 12  1  0
 25 15  1  0
 22 18  2  0
M  END
>  <molecule_chembl_id>  (1067) 
CHEMBL4792705

>  <canonical_smiles>  (1067) 
O=C(CCCCCCC(=O)Nc1n[nH]c2cc(-c3ccsc3)ccc12)NO

>  <pchembl_value_mean>  (1067) 
7.5

>  <document_chembl_id>  (1067) 
CHEMBL4765277

$$$$

     RDKit          2D

 43 45  0  0  0  0  0  0  0  0999 V2000
    6.8839   -1.2990    0.0000 C   0  0  0  0  0  0  0  0  0  0  0  0
    5.3839   -1.2990    0.0000 C   0  0  0  0  0  0  0  0  0  0  0  0
    4.6339   -2.5981    0.0000 C   0  0  0  0  0  0  0  0  0  0  0  0
    4.6339    0.0000    0.0000 C   0  0  0  0  0  0  0  0  0  0  0  0
    3.1339    0.0000    0.0000 C   0  0  0  0  0  0  0  0  0  0  0  0
    2.7750    1.4564    0.0000 C   0  0  0  0  0  0  0  0  0  0  0  0
    1.7803    2.5792    0.0000 C   0  0  0  0  0  0  0  0  0  0  0  0
    2.6324    3.8137    0.0000 O   0  0  0  0  0  0  0  0  0  0  0  0
    0.3778    3.1111    0.0000 N   0  0  0  0  0  0  0  0  0  0  0  0
   -1.1113    2.9303    0.0000 C   0  0  0  0  0  0  0  0  0  0  0  0
   -1.6432    4.3328    0.0000 C   0  0  0  0  0  0  0  0  0  0  0  0
   -2.3458    2.0782    0.0000 C   0  0  0  0  0  0  0  0  0  0  0  0
   -3.4686    3.0729    0.0000 O   0  0  0  0  0  0  0  0  0  0  0  0
   -3.0429    0.7500    0.0000 N   0  0  0  0  0  0  0  0  0  0  0  0
   -3.0429   -0.7500    0.0000 C   0  0  0  0  0  0  0  0  0  0  0  0
   -4.4993   -1.1090    0.0000 C   0  0  0  0  0  0  0  0  0  0  0  0
   -5.5384   -0.0272    0.0000 C   0  0  0  0  0  0  0  0  0  0  0  0
   -6.9948   -0.3861    0.0000 C   0  0  0  0  0  0  0  0  0  0  0  0
   -8.0339    0.6957    0.0000 C   0  0  0  0  0  0  0  0  0  0  0  0
   -9.4903    0.3367    0.0000 C   0  0  0  0  0  0  0  0  0  0  0  0
  -10.5294    1.4185    0.0000 C   0  0  0  0  0  0  0  0  0  0  0  0
  -10.1120    2.8593    0.0000 O   0  0  0  0  0  0  0  0  0  0  0  0
  -11.9858    1.0595    0.0000 C   0  0  0  0  0  0  0  0  0  0  0  0
  -13.4422    0.7005    0.0000 F   0  0  0  0  0  0  0  0  0  0  0  0
  -12.3448    2.5159    0.0000 F   0  0  0  0  0  0  0  0  0  0  0  0
  -11.6268   -0.3969    0.0000 F   0  0  0  0  0  0  0  0  0  0  0  0
   -2.3458   -2.0782    0.0000 C   0  0  0  0  0  0  0  0  0  0  0  0
   -3.4686   -3.0729    0.0000 O   0  0  0  0  0  0  0  0  0  0  0  0
   -1.1113   -2.9303    0.0000 N   0  0  0  0  0  0  0  0  0  0  0  0
    0.3778   -3.1111    0.0000 C   0  0  0  0  0  0  0  0  0  0  0  0
    0.5586   -4.6001    0.0000 C   0  0  0  0  0  0  0  0  0  0  0  0
   -0.6406   -5.5013    0.0000 C   0  0  0  0  0  0  0  0  0  0  0  0
   -2.0745   -5.0608    0.0000 C   0  0  0  0  0  0  0  0  0  0  0  0
   -2.9365   -6.2884    0.0000 N   0  0  0  0  0  0  0  0  0  0  0  0
   -2.0354   -7.4875    0.0000 C   0  0  0  0  0  0  0  0  0  0  0  0
   -2.3236   -8.9596    0.0000 C   0  0  0  0  0  0  0  0  0  0  0  0
   -1.1928   -9.9452    0.0000 C   0  0  0  0  0  0  0  0  0  0  0  0
    0.2261   -9.4587    0.0000 C   0  0  0  0  0  0  0  0  0  0  0  0
    0.5143   -7.9867    0.0000 C   0  0  0  0  0  0  0  0  0  0  0  0
   -0.6164   -7.0011    0.0000 C   0  0  0  0  0  0  0  0  0  0  0  0
    1.7803   -2.5792    0.0000 C   0  0  0  0  0  0  0  0  0  0  0  0
    2.6324   -3.8137    0.0000 O   0  0  0  0  0  0  0  0  0  0  0  0
    2.7750   -1.4564    0.0000 N   0  0  0  0  0  0  0  0  0  0  0  0
  1  2  1  0
  2  3  1  0
  2  4  1  0
  4  5  1  0
  5  6  1  0
  6  7  1  0
  7  8  2  0
  7  9  1  0
  9 10  1  0
 10 11  1  0
 10 12  1  0
 12 13  2  0
 12 14  1  0
 14 15  1  0
 15 16  1  0
 16 17  1  0
 17 18  1  0
 18 19  1  0
 19 20  1  0
 20 21  1  0
 21 22  2  0
 21 23  1  0
 23 24  1  0
 23 25  1  0
 23 26  1  0
 15 27  1  0
 27 28  2  0
 27 29  1  0
 29 30  1  0
 30 31  1  0
 31 32  1  0
 32 33  2  0
 33 34  1  0
 34 35  1  0
 35 36  2  0
 36 37  1  0
 37 38  2  0
 38 39  1  0
 39 40  2  0
 30 41  1  0
 41 42  2  0
 41 43  1  0
 43  5  1  0
 40 32  1  0
 40 35  1  0
M  END
>  <molecule_chembl_id>  (1068) 
CHEMBL2012811

>  <canonical_smiles>  (1068) 
CC(C)CC1CC(=O)NC(C)C(=O)NC(CCCCCC(=O)C(F)(F)F)C(=O)NC(Cc2c[nH]c3ccccc23)C(=O)N1

>  <pchembl_value_mean>  (1068) 
7.5

>  <document_chembl_id>  (1068) 
CHEMBL4052703

$$$$

     RDKit          2D

 36 38  0  0  0  0  0  0  0  0999 V2000
    3.0000    0.0000    0.0000 C   0  0  0  0  0  0  0  0  0  0  0  0
    1.5000    0.0000    0.0000 C   0  0  0  0  0  0  0  0  0  0  0  0
    0.7500   -1.2990    0.0000 C   0  0  0  0  0  0  0  0  0  0  0  0
   -0.7500   -1.2990    0.0000 C   0  0  0  0  0  0  0  0  0  0  0  0
   -1.5000    0.0000    0.0000 C   0  0  0  0  0  0  0  0  0  0  0  0
   -3.0000    0.0000    0.0000 C   0  0  0  0  0  0  0  0  0  0  0  0
   -3.8817   -1.2135    0.0000 C   0  0  0  0  0  0  0  0  0  0  0  0
   -5.3083   -0.7500    0.0000 C   0  0  0  0  0  0  0  0  0  0  0  0
   -6.5218   -1.6317    0.0000 C   0  0  0  0  0  0  0  0  0  0  0  0
   -6.3650   -3.1235    0.0000 O   0  0  0  0  0  0  0  0  0  0  0  0
   -7.8921   -1.0216    0.0000 N   0  0  0  0  0  0  0  0  0  0  0  0
   -9.1056   -1.9033    0.0000 C   0  0  0  0  0  0  0  0  0  0  0  0
  -10.4760   -1.2931    0.0000 C   0  0  0  0  0  0  0  0  0  0  0  0
  -11.6895   -2.1748    0.0000 C   0  0  0  0  0  0  0  0  0  0  0  0
  -13.0598   -1.5647    0.0000 C   0  0  0  0  0  0  0  0  0  0  0  0
  -14.2733   -2.4464    0.0000 C   0  0  0  0  0  0  0  0  0  0  0  0
  -15.6436   -1.8363    0.0000 C   0  0  0  0  0  0  0  0  0  0  0  0
  -16.8572   -2.7180    0.0000 C   0  0  0  0  0  0  0  0  0  0  0  0
  -18.2275   -2.1079    0.0000 C   0  0  0  0  0  0  0  0  0  0  0  0
  -18.3843   -0.6161    0.0000 O   0  0  0  0  0  0  0  0  0  0  0  0
  -19.4410   -2.9895    0.0000 N   0  0  0  0  0  0  0  0  0  0  0  0
  -20.8113   -2.3794    0.0000 O   0  0  0  0  0  0  0  0  0  0  0  0
   -5.3083    0.7500    0.0000 N   0  0  0  0  0  0  0  0  0  0  0  0
   -3.8817    1.2135    0.0000 N   0  0  0  0  0  0  0  0  0  0  0  0
   -3.4182    2.6401    0.0000 C   0  0  0  0  0  0  0  0  0  0  0  0
   -1.9509    2.9520    0.0000 C   0  0  0  0  0  0  0  0  0  0  0  0
   -1.4874    4.3786    0.0000 C   0  0  0  0  0  0  0  0  0  0  0  0
   -2.4911    5.4933    0.0000 C   0  0  0  0  0  0  0  0  0  0  0  0
   -2.0276    6.9199    0.0000 S   0  0  0  0  0  0  0  0  0  0  0  0
   -1.5641    8.3464    0.0000 N   0  0  0  0  0  0  0  0  0  0  0  0
   -0.6010    6.4563    0.0000 O   0  0  0  0  0  0  0  0  0  0  0  0
   -3.4542    7.3834    0.0000 O   0  0  0  0  0  0  0  0  0  0  0  0
   -3.9583    5.1814    0.0000 C   0  0  0  0  0  0  0  0  0  0  0  0
   -4.4218    3.7548    0.0000 C   0  0  0  0  0  0  0  0  0  0  0  0
   -0.7500    1.2990    0.0000 C   0  0  0  0  0  0  0  0  0  0  0  0
    0.7500    1.2990    0.0000 C   0  0  0  0  0  0  0  0  0  0  0  0
  1  2  1  0
  2  3  2  0
  3  4  1  0
  4  5  2  0
  5  6  1  0
  6  7  2  0
  7  8  1  0
  8  9  1  0
  9 10  2  0
  9 11  1  0
 11 12  1  0
 12 13  1  0
 13 14  1  0
 14 15  1  0
 15 16  1  0
 16 17  1  0
 17 18  1  0
 18 19  1  0
 19 20  2  0
 19 21  1  0
 21 22  1  0
  8 23  2  0
 23 24  1  0
 24 25  1  0
 25 26  2  0
 26 27  1  0
 27 28  2  0
 28 29  1  0
 29 30  1  0
 29 31  2  0
 29 32  2  0
 28 33  1  0
 33 34  2  0
  5 35  1  0
 35 36  2  0
 36  2  1  0
 24  6  1  0
 34 25  1  0
M  END
>  <molecule_chembl_id>  (1069) 
CHEMBL3883560

>  <canonical_smiles>  (1069) 
Cc1ccc(-c2cc(C(=O)NCCCCCCCC(=O)NO)nn2-c2ccc(S(N)(=O)=O)cc2)cc1

>  <pchembl_value_mean>  (1069) 
7.5

>  <document_chembl_id>  (1069) 
CHEMBL3875218

$$$$

     RDKit          2D

 35 39  0  0  0  0  0  0  0  0999 V2000
   -6.4952  -16.3573    0.0000 O   0  0  0  0  0  0  0  0  0  0  0  0
   -5.1962  -17.1073    0.0000 C   0  0  0  0  0  0  0  0  0  0  0  0
   -3.8971  -16.3573    0.0000 C   0  0  0  0  0  0  0  0  0  0  0  0
   -3.8971  -14.8573    0.0000 C   0  0  0  0  0  0  0  0  0  0  0  0
   -2.5981  -14.1073    0.0000 C   0  0  0  0  0  0  0  0  0  0  0  0
   -2.5981  -12.6073    0.0000 C   0  0  0  0  0  0  0  0  0  0  0  0
   -1.2990  -11.8573    0.0000 C   0  0  0  0  0  0  0  0  0  0  0  0
   -1.2990  -10.3573    0.0000 C   0  0  0  0  0  0  0  0  0  0  0  0
    0.0000   -9.6073    0.0000 O   0  0  0  0  0  0  0  0  0  0  0  0
    0.0000   -8.1073    0.0000 C   0  0  0  0  0  0  0  0  0  0  0  0
   -1.2990   -7.3573    0.0000 C   0  0  0  0  0  0  0  0  0  0  0  0
   -1.2990   -5.8573    0.0000 C   0  0  0  0  0  0  0  0  0  0  0  0
   -0.0000   -5.1073    0.0000 C   0  0  0  0  0  0  0  0  0  0  0  0
   -0.0000   -3.6073    0.0000 C   0  0  0  0  0  0  0  0  0  0  0  0
    1.2135   -2.7256    0.0000 N   0  0  0  0  0  0  0  0  0  0  0  0
    0.7500   -1.2990    0.0000 C   0  0  0  0  0  0  0  0  0  0  0  0
    1.5000    0.0000    0.0000 C   0  0  0  0  0  0  0  0  0  0  0  0
    0.7500    1.2990    0.0000 C   0  0  0  0  0  0  0  0  0  0  0  0
   -0.7500    1.2990    0.0000 C   0  0  0  0  0  0  0  0  0  0  0  0
   -1.5000    2.5981    0.0000 C   0  0  0  0  0  0  0  0  0  0  0  0
   -0.8899    3.9684    0.0000 N   0  0  0  0  0  0  0  0  0  0  0  0
   -2.0046    4.9721    0.0000 C   0  0  0  0  0  0  0  0  0  0  0  0
   -2.0046    6.4721    0.0000 C   0  0  0  0  0  0  0  0  0  0  0  0
   -3.3037    7.2221    0.0000 C   0  0  0  0  0  0  0  0  0  0  0  0
   -4.6027    6.4721    0.0000 C   0  0  0  0  0  0  0  0  0  0  0  0
   -4.6027    4.9721    0.0000 C   0  0  0  0  0  0  0  0  0  0  0  0
   -3.3037    4.2221    0.0000 C   0  0  0  0  0  0  0  0  0  0  0  0
   -2.9918    2.7549    0.0000 N   0  0  0  0  0  0  0  0  0  0  0  0
   -1.5000    0.0000    0.0000 C   0  0  0  0  0  0  0  0  0  0  0  0
   -0.7500   -1.2990    0.0000 C   0  0  0  0  0  0  0  0  0  0  0  0
   -1.2135   -2.7256    0.0000 N   0  0  0  0  0  0  0  0  0  0  0  0
    1.2990   -5.8573    0.0000 C   0  0  0  0  0  0  0  0  0  0  0  0
    1.2990   -7.3573    0.0000 C   0  0  0  0  0  0  0  0  0  0  0  0
   -5.1962  -18.6073    0.0000 N   0  0  0  0  0  0  0  0  0  0  0  0
   -6.4952  -19.3573    0.0000 O   0  0  0  0  0  0  0  0  0  0  0  0
  1  2  2  0
  2  3  1  0
  3  4  1  0
  4  5  1  0
  5  6  1  0
  6  7  1  0
  7  8  1  0
  8  9  1  0
  9 10  1  0
 10 11  2  0
 11 12  1  0
 12 13  2  0
 13 14  1  0
 14 15  2  0
 15 16  1  0
 16 17  2  0
 17 18  1  0
 18 19  2  0
 19 20  1  0
 20 21  2  0
 21 22  1  0
 22 23  2  0
 23 24  1  0
 24 25  2  0
 25 26  1  0
 26 27  2  0
 27 28  1  0
 19 29  1  0
 29 30  2  0
 30 31  1  0
 13 32  1  0
 32 33  2  0
  2 34  1  0
 34 35  1  0
 33 10  1  0
 31 14  1  0
 30 16  1  0
 28 20  1  0
 27 22  1  0
M  END
>  <molecule_chembl_id>  (1070) 
CHEMBL5087772

>  <canonical_smiles>  (1070) 
O=C(CCCCCCOc1ccc(-c2nc3ccc(-c4nc5ccccc5[nH]4)cc3[nH]2)cc1)NO

>  <pchembl_value_mean>  (1070) 
7.5

>  <document_chembl_id>  (1070) 
CHEMBL5038666

$$$$

     RDKit          2D

 24 26  0  0  0  0  0  0  0  0999 V2000
   -7.5000   -5.1962    0.0000 O   0  0  0  0  0  0  0  0  0  0  0  0
   -6.0000   -5.1962    0.0000 C   0  0  0  0  0  0  0  0  0  0  0  0
   -5.2500   -6.4952    0.0000 N   0  0  0  0  0  0  0  0  0  0  0  0
   -6.0000   -7.7942    0.0000 O   0  0  0  0  0  0  0  0  0  0  0  0
   -5.2500   -3.8971    0.0000 C   0  0  0  0  0  0  0  0  0  0  0  0
   -3.7500   -3.8971    0.0000 C   0  0  0  0  0  0  0  0  0  0  0  0
   -3.0000   -2.5981    0.0000 N   0  0  0  0  0  0  0  0  0  0  0  0
   -3.7500   -1.2990    0.0000 C   0  0  0  0  0  0  0  0  0  0  0  0
   -3.0000    0.0000    0.0000 N   0  0  0  0  0  0  0  0  0  0  0  0
   -3.7500    1.2990    0.0000 C   0  0  0  0  0  0  0  0  0  0  0  0
   -2.6009    2.2632    0.0000 C   0  0  0  0  0  0  0  0  0  0  0  0
   -1.1914    1.7502    0.0000 C   0  0  0  0  0  0  0  0  0  0  0  0
   -0.0423    2.7144    0.0000 C   0  0  0  0  0  0  0  0  0  0  0  0
   -0.3028    4.1916    0.0000 C   0  0  0  0  0  0  0  0  0  0  0  0
   -1.7123    4.7046    0.0000 C   0  0  0  0  0  0  0  0  0  0  0  0
   -1.9728    6.1818    0.0000 C   0  0  0  0  0  0  0  0  0  0  0  0
   -2.2333    7.6590    0.0000 F   0  0  0  0  0  0  0  0  0  0  0  0
   -0.4956    6.4423    0.0000 F   0  0  0  0  0  0  0  0  0  0  0  0
   -3.4500    5.9214    0.0000 F   0  0  0  0  0  0  0  0  0  0  0  0
   -2.8614    3.7404    0.0000 C   0  0  0  0  0  0  0  0  0  0  0  0
   -4.8991    2.2632    0.0000 C   0  0  0  0  0  0  0  0  0  0  0  0
   -5.1595    0.7860    0.0000 C   0  0  0  0  0  0  0  0  0  0  0  0
   -5.2500   -1.2990    0.0000 N   0  0  0  0  0  0  0  0  0  0  0  0
   -6.0000   -2.5981    0.0000 C   0  0  0  0  0  0  0  0  0  0  0  0
  1  2  2  0
  2  3  1  0
  3  4  1  0
  2  5  1  0
  5  6  2  0
  6  7  1  0
  7  8  2  0
  8  9  1  0
  9 10  1  0
 10 11  1  0
 11 12  2  0
 12 13  1  0
 13 14  2  0
 14 15  1  0
 15 16  1  0
 16 17  1  0
 16 18  1  0
 16 19  1  0
 15 20  2  0
 10 21  1  0
 21 22  1  0
  8 23  1  0
 23 24  2  0
 24  5  1  0
 22 10  1  0
 20 11  1  0
M  END
>  <molecule_chembl_id>  (1071) 
CHEMBL3655990

>  <canonical_smiles>  (1071) 
O=C(NO)c1cnc(NC2(c3cccc(C(F)(F)F)c3)CC2)nc1

>  <pchembl_value_mean>  (1071) 
7.5

>  <document_chembl_id>  (1071) 
CHEMBL3639071

$$$$

     RDKit          2D

 34 38  0  0  0  0  0  0  0  0999 V2000
    3.7500   -1.2990    0.0000 C   0  0  0  0  0  0  0  0  0  0  0  0
    3.0000    0.0000    0.0000 O   0  0  0  0  0  0  0  0  0  0  0  0
    1.5000    0.0000    0.0000 C   0  0  0  0  0  0  0  0  0  0  0  0
    0.7500   -1.2990    0.0000 C   0  0  0  0  0  0  0  0  0  0  0  0
   -0.7500   -1.2990    0.0000 C   0  0  0  0  0  0  0  0  0  0  0  0
   -1.5000    0.0000    0.0000 C   0  0  0  0  0  0  0  0  0  0  0  0
   -0.7500    1.2990    0.0000 C   0  0  0  0  0  0  0  0  0  0  0  0
    0.7500    1.2990    0.0000 C   0  0  0  0  0  0  0  0  0  0  0  0
   -1.7537    2.4138    0.0000 C   0  0  0  0  0  0  0  0  0  0  0  0
   -1.4418    3.8810    0.0000 C   0  0  0  0  0  0  0  0  0  0  0  0
   -0.0715    4.4911    0.0000 N   0  0  0  0  0  0  0  0  0  0  0  0
   -0.2283    5.9829    0.0000 C   0  0  0  0  0  0  0  0  0  0  0  0
    0.7754    7.0976    0.0000 C   0  0  0  0  0  0  0  0  0  0  0  0
    0.3119    8.5242    0.0000 C   0  0  0  0  0  0  0  0  0  0  0  0
   -1.1554    8.8360    0.0000 C   0  0  0  0  0  0  0  0  0  0  0  0
   -2.1590    7.7213    0.0000 C   0  0  0  0  0  0  0  0  0  0  0  0
   -1.6955    6.2947    0.0000 C   0  0  0  0  0  0  0  0  0  0  0  0
   -2.4455    4.9957    0.0000 C   0  0  0  0  0  0  0  0  0  0  0  0
   -3.9373    4.8389    0.0000 N   0  0  0  0  0  0  0  0  0  0  0  0
   -4.8190    6.0524    0.0000 O   0  0  0  0  0  0  0  0  0  0  0  0
   -3.1240    1.8037    0.0000 C   0  0  0  0  0  0  0  0  0  0  0  0
   -4.4231    2.5537    0.0000 O   0  0  0  0  0  0  0  0  0  0  0  0
   -2.9672    0.3119    0.0000 N   0  0  0  0  0  0  0  0  0  0  0  0
   -4.0819   -0.6918    0.0000 C   0  0  0  0  0  0  0  0  0  0  0  0
   -5.5085   -0.2283    0.0000 C   0  0  0  0  0  0  0  0  0  0  0  0
   -5.8204    1.2389    0.0000 C   0  0  0  0  0  0  0  0  0  0  0  0
   -7.2470    1.7024    0.0000 C   0  0  0  0  0  0  0  0  0  0  0  0
   -8.3617    0.6987    0.0000 C   0  0  0  0  0  0  0  0  0  0  0  0
   -9.7883    1.1623    0.0000 C   0  0  0  0  0  0  0  0  0  0  0  0
  -10.9030    0.1586    0.0000 O   0  0  0  0  0  0  0  0  0  0  0  0
  -10.1001    2.6295    0.0000 N   0  0  0  0  0  0  0  0  0  0  0  0
  -11.5267    3.0930    0.0000 O   0  0  0  0  0  0  0  0  0  0  0  0
   -8.0498   -0.7685    0.0000 C   0  0  0  0  0  0  0  0  0  0  0  0
   -6.6232   -1.2320    0.0000 C   0  0  0  0  0  0  0  0  0  0  0  0
  1  2  1  0
  2  3  1  0
  3  4  2  0
  4  5  1  0
  5  6  2  0
  6  7  1  0
  7  8  2  0
  7  9  1  0
  9 10  2  3
 10 11  1  0
 11 12  1  0
 12 13  2  0
 13 14  1  0
 14 15  2  0
 15 16  1  0
 16 17  2  0
 17 18  1  0
 18 19  2  3
 19 20  1  0
  9 21  1  0
 21 22  2  0
 21 23  1  0
 23 24  1  0
 24 25  1  0
 25 26  2  0
 26 27  1  0
 27 28  2  0
 28 29  1  0
 29 30  2  0
 29 31  1  0
 31 32  1  0
 28 33  1  0
 33 34  2  0
  8  3  1  0
 18 10  1  0
 34 25  1  0
 23  6  1  0
 17 12  1  0
M  END
>  <molecule_chembl_id>  (1072) 
CHEMBL4751879

>  <canonical_smiles>  (1072) 
COc1ccc2c(c1)C(=C1Nc3ccccc3C1=NO)C(=O)N2Cc1ccc(C(=O)NO)cc1

>  <pchembl_value_mean>  (1072) 
7.51

>  <document_chembl_id>  (1072) 
CHEMBL4699494

$$$$

     RDKit          2D

 27 29  0  0  0  0  0  0  0  0999 V2000
   -7.5000  -15.5885    0.0000 C   0  0  0  0  0  0  0  0  0  0  0  0
   -6.0000  -15.5885    0.0000 C   0  0  0  0  0  0  0  0  0  0  0  0
   -5.2500  -14.2894    0.0000 C   0  0  0  0  0  0  0  0  0  0  0  0
   -3.7500  -14.2894    0.0000 N   0  0  0  0  0  0  0  0  0  0  0  0
   -3.0000  -12.9904    0.0000 N   0  0  0  0  0  0  0  0  0  0  0  0
   -1.5000  -12.9904    0.0000 C   0  0  0  0  0  0  0  0  0  0  0  0
   -0.7500  -14.2894    0.0000 O   0  0  0  0  0  0  0  0  0  0  0  0
   -0.7500  -11.6913    0.0000 C   0  0  0  0  0  0  0  0  0  0  0  0
   -1.5000  -10.3923    0.0000 C   0  0  0  0  0  0  0  0  0  0  0  0
   -0.7500   -9.0933    0.0000 C   0  0  0  0  0  0  0  0  0  0  0  0
    0.7500   -9.0933    0.0000 C   0  0  0  0  0  0  0  0  0  0  0  0
    1.5000   -7.7942    0.0000 C   0  0  0  0  0  0  0  0  0  0  0  0
    0.7500   -6.4952    0.0000 N   0  0  0  0  0  0  0  0  0  0  0  0
    1.5000   -5.1962    0.0000 C   0  0  0  0  0  0  0  0  0  0  0  0
    3.0000   -5.1962    0.0000 O   0  0  0  0  0  0  0  0  0  0  0  0
    0.7500   -3.8971    0.0000 C   0  0  0  0  0  0  0  0  0  0  0  0
    1.5000   -2.5981    0.0000 C   0  0  0  0  0  0  0  0  0  0  0  0
    0.7500   -1.2990    0.0000 C   0  0  0  0  0  0  0  0  0  0  0  0
    1.5000    0.0000    0.0000 C   0  0  0  0  0  0  0  0  0  0  0  0
    0.7500    1.2990    0.0000 C   0  0  0  0  0  0  0  0  0  0  0  0
   -0.7500    1.2990    0.0000 C   0  0  0  0  0  0  0  0  0  0  0  0
   -1.5000    0.0000    0.0000 C   0  0  0  0  0  0  0  0  0  0  0  0
   -0.7500   -1.2990    0.0000 C   0  0  0  0  0  0  0  0  0  0  0  0
   -1.5000   -2.5981    0.0000 C   0  0  0  0  0  0  0  0  0  0  0  0
   -0.7500   -3.8971    0.0000 N   0  0  0  0  0  0  0  0  0  0  0  0
    1.5000  -10.3923    0.0000 C   0  0  0  0  0  0  0  0  0  0  0  0
    0.7500  -11.6913    0.0000 C   0  0  0  0  0  0  0  0  0  0  0  0
  1  2  1  0
  2  3  1  0
  3  4  1  0
  4  5  1  0
  5  6  1  0
  6  7  2  0
  6  8  1  0
  8  9  2  0
  9 10  1  0
 10 11  2  0
 11 12  1  0
 12 13  1  0
 13 14  1  0
 14 15  2  0
 14 16  1  0
 16 17  2  0
 17 18  1  0
 18 19  2  0
 19 20  1  0
 20 21  2  0
 21 22  1  0
 22 23  2  0
 23 24  1  0
 24 25  2  0
 11 26  1  0
 26 27  2  0
 27  8  1  0
 25 16  1  0
 23 18  1  0
M  END
>  <molecule_chembl_id>  (1073) 
CHEMBL5086924

>  <canonical_smiles>  (1073) 
CCCNNC(=O)c1ccc(CNC(=O)c2cc3ccccc3cn2)cc1

>  <pchembl_value_mean>  (1073) 
7.51

>  <document_chembl_id>  (1073) 
CHEMBL5042504

$$$$

     RDKit          2D

 27 29  0  0  0  0  0  0  0  0999 V2000
  -15.0000   -2.5981    0.0000 C   0  0  0  0  0  0  0  0  0  0  0  0
  -14.2500   -3.8971    0.0000 C   0  0  0  0  0  0  0  0  0  0  0  0
  -12.7500   -3.8971    0.0000 C   0  0  0  0  0  0  0  0  0  0  0  0
  -12.0000   -5.1962    0.0000 N   0  0  0  0  0  0  0  0  0  0  0  0
  -10.5000   -5.1962    0.0000 N   0  0  0  0  0  0  0  0  0  0  0  0
   -9.7500   -6.4952    0.0000 C   0  0  0  0  0  0  0  0  0  0  0  0
  -10.5000   -7.7942    0.0000 O   0  0  0  0  0  0  0  0  0  0  0  0
   -8.2500   -6.4952    0.0000 C   0  0  0  0  0  0  0  0  0  0  0  0
   -7.5000   -5.1962    0.0000 C   0  0  0  0  0  0  0  0  0  0  0  0
   -6.0000   -5.1962    0.0000 C   0  0  0  0  0  0  0  0  0  0  0  0
   -5.2500   -6.4952    0.0000 C   0  0  0  0  0  0  0  0  0  0  0  0
   -3.7500   -6.4952    0.0000 C   0  0  0  0  0  0  0  0  0  0  0  0
   -3.0000   -5.1962    0.0000 N   0  0  0  0  0  0  0  0  0  0  0  0
   -1.5000   -5.1962    0.0000 C   0  0  0  0  0  0  0  0  0  0  0  0
   -0.7500   -6.4952    0.0000 O   0  0  0  0  0  0  0  0  0  0  0  0
   -0.7500   -3.8971    0.0000 C   0  0  0  0  0  0  0  0  0  0  0  0
    0.7500   -3.8971    0.0000 C   0  0  0  0  0  0  0  0  0  0  0  0
    1.5000   -2.5981    0.0000 C   0  0  0  0  0  0  0  0  0  0  0  0
    0.7500   -1.2990    0.0000 C   0  0  0  0  0  0  0  0  0  0  0  0
    1.5000    0.0000    0.0000 C   0  0  0  0  0  0  0  0  0  0  0  0
    0.7500    1.2990    0.0000 C   0  0  0  0  0  0  0  0  0  0  0  0
   -0.7500    1.2990    0.0000 N   0  0  0  0  0  0  0  0  0  0  0  0
   -1.5000    0.0000    0.0000 C   0  0  0  0  0  0  0  0  0  0  0  0
   -0.7500   -1.2990    0.0000 C   0  0  0  0  0  0  0  0  0  0  0  0
   -1.5000   -2.5981    0.0000 C   0  0  0  0  0  0  0  0  0  0  0  0
   -6.0000   -7.7942    0.0000 C   0  0  0  0  0  0  0  0  0  0  0  0
   -7.5000   -7.7942    0.0000 C   0  0  0  0  0  0  0  0  0  0  0  0
  1  2  1  0
  2  3  1  0
  3  4  1  0
  4  5  1  0
  5  6  1  0
  6  7  2  0
  6  8  1  0
  8  9  2  0
  9 10  1  0
 10 11  2  0
 11 12  1  0
 12 13  1  0
 13 14  1  0
 14 15  2  0
 14 16  1  0
 16 17  2  0
 17 18  1  0
 18 19  2  0
 19 20  1  0
 20 21  2  0
 21 22  1  0
 22 23  2  0
 23 24  1  0
 24 25  2  0
 11 26  1  0
 26 27  2  0
 27  8  1  0
 25 16  1  0
 24 19  1  0
M  END
>  <molecule_chembl_id>  (1074) 
CHEMBL5075425

>  <canonical_smiles>  (1074) 
CCCNNC(=O)c1ccc(CNC(=O)c2ccc3ccncc3c2)cc1

>  <pchembl_value_mean>  (1074) 
7.52

>  <document_chembl_id>  (1074) 
CHEMBL5042504

$$$$

     RDKit          2D

 20 21  0  0  0  0  0  0  0  0999 V2000
    3.7500    1.2990    0.0000 O   0  0  0  0  0  0  0  0  0  0  0  0
    3.0000    0.0000    0.0000 C   0  0  0  0  0  0  0  0  0  0  0  0
    3.7500   -1.2990    0.0000 N   0  0  0  0  0  0  0  0  0  0  0  0
    5.2500   -1.2990    0.0000 O   0  0  0  0  0  0  0  0  0  0  0  0
    1.5000    0.0000    0.0000 C   0  0  0  0  0  0  0  0  0  0  0  0
    0.7500   -1.2990    0.0000 C   0  0  0  0  0  0  0  0  0  0  0  0
   -0.7500   -1.2990    0.0000 N   0  0  0  0  0  0  0  0  0  0  0  0
   -1.5000    0.0000    0.0000 C   0  0  0  0  0  0  0  0  0  0  0  0
   -3.0000    0.0000    0.0000 N   0  0  0  0  0  0  0  0  0  0  0  0
   -3.7500    1.2990    0.0000 C   0  0  0  0  0  0  0  0  0  0  0  0
   -5.2500    1.2990    0.0000 C   0  0  0  0  0  0  0  0  0  0  0  0
   -6.0000    2.5981    0.0000 C   0  0  0  0  0  0  0  0  0  0  0  0
   -7.5000    2.5981    0.0000 C   0  0  0  0  0  0  0  0  0  0  0  0
   -8.2500    1.2990    0.0000 C   0  0  0  0  0  0  0  0  0  0  0  0
   -9.7500    1.2990    0.0000 F   0  0  0  0  0  0  0  0  0  0  0  0
   -7.5000    0.0000    0.0000 C   0  0  0  0  0  0  0  0  0  0  0  0
   -8.2500   -1.2990    0.0000 Cl  0  0  0  0  0  0  0  0  0  0  0  0
   -6.0000    0.0000    0.0000 C   0  0  0  0  0  0  0  0  0  0  0  0
   -0.7500    1.2990    0.0000 N   0  0  0  0  0  0  0  0  0  0  0  0
    0.7500    1.2990    0.0000 C   0  0  0  0  0  0  0  0  0  0  0  0
  1  2  2  0
  2  3  1  0
  3  4  1  0
  2  5  1  0
  5  6  2  0
  6  7  1  0
  7  8  2  0
  8  9  1  0
  9 10  1  0
 10 11  1  0
 11 12  2  0
 12 13  1  0
 13 14  2  0
 14 15  1  0
 14 16  1  0
 16 17  1  0
 16 18  2  0
  8 19  1  0
 19 20  2  0
 20  5  1  0
 18 11  1  0
M  END
>  <molecule_chembl_id>  (1075) 
CHEMBL3655936

>  <canonical_smiles>  (1075) 
O=C(NO)c1cnc(NCc2ccc(F)c(Cl)c2)nc1

>  <pchembl_value_mean>  (1075) 
7.52

>  <document_chembl_id>  (1075) 
CHEMBL3639071

$$$$

     RDKit          2D

 29 32  0  0  0  0  0  0  0  0999 V2000
   -3.0000   -2.5981    0.0000 C   0  0  0  0  0  0  0  0  0  0  0  0
   -1.5000   -2.5981    0.0000 C   0  0  0  0  0  0  0  0  0  0  0  0
   -0.7500   -3.8971    0.0000 C   0  0  0  0  0  0  0  0  0  0  0  0
    0.7500   -3.8971    0.0000 N   0  0  0  0  0  0  0  0  0  0  0  0
    1.5000   -5.1962    0.0000 C   0  0  0  0  0  0  0  0  0  0  0  0
    0.7500   -6.4952    0.0000 C   0  0  0  0  0  0  0  0  0  0  0  0
   -0.7500   -6.4952    0.0000 C   0  0  0  0  0  0  0  0  0  0  0  0
   -1.5000   -7.7942    0.0000 C   0  0  0  0  0  0  0  0  0  0  0  0
   -0.7500   -9.0933    0.0000 C   0  0  0  0  0  0  0  0  0  0  0  0
   -1.5000  -10.3923    0.0000 C   0  0  0  0  0  0  0  0  0  0  0  0
   -0.7500  -11.6913    0.0000 O   0  0  0  0  0  0  0  0  0  0  0  0
   -3.0000  -10.3923    0.0000 N   0  0  0  0  0  0  0  0  0  0  0  0
   -3.7500  -11.6913    0.0000 C   0  0  0  0  0  0  0  0  0  0  0  0
   -5.2500  -11.6913    0.0000 C   0  0  0  0  0  0  0  0  0  0  0  0
   -6.0000  -12.9904    0.0000 C   0  0  0  0  0  0  0  0  0  0  0  0
   -5.2500  -14.2894    0.0000 C   0  0  0  0  0  0  0  0  0  0  0  0
   -3.7500  -14.2894    0.0000 C   0  0  0  0  0  0  0  0  0  0  0  0
   -3.0000  -12.9904    0.0000 C   0  0  0  0  0  0  0  0  0  0  0  0
   -1.5000  -12.9904    0.0000 N   0  0  0  0  0  0  0  0  0  0  0  0
    0.7500   -9.0933    0.0000 C   0  0  0  0  0  0  0  0  0  0  0  0
    1.5000   -7.7942    0.0000 C   0  0  0  0  0  0  0  0  0  0  0  0
    1.5000   -2.5981    0.0000 C   0  0  0  0  0  0  0  0  0  0  0  0
    3.0000   -2.5981    0.0000 O   0  0  0  0  0  0  0  0  0  0  0  0
    0.7500   -1.2990    0.0000 C   0  0  0  0  0  0  0  0  0  0  0  0
    1.5000    0.0000    0.0000 C   0  0  0  0  0  0  0  0  0  0  0  0
    0.7500    1.2990    0.0000 C   0  0  0  0  0  0  0  0  0  0  0  0
   -0.7500    1.2990    0.0000 C   0  0  0  0  0  0  0  0  0  0  0  0
   -1.5000    0.0000    0.0000 C   0  0  0  0  0  0  0  0  0  0  0  0
   -0.7500   -1.2990    0.0000 C   0  0  0  0  0  0  0  0  0  0  0  0
  1  2  2  0
  2  3  1  0
  3  4  1  0
  4  5  1  0
  5  6  1  0
  6  7  2  0
  7  8  1  0
  8  9  2  0
  9 10  1  0
 10 11  2  0
 10 12  1  0
 12 13  1  0
 13 14  2  0
 14 15  1  0
 15 16  2  0
 16 17  1  0
 17 18  2  0
 18 19  1  0
  9 20  1  0
 20 21  2  0
  4 22  1  0
 22 23  2  0
 22 24  1  0
 24 25  2  0
 25 26  1  0
 26 27  2  0
 27 28  1  0
 28 29  2  0
 29  2  1  0
 21  6  1  0
 29 24  1  0
 18 13  1  0
M  END
>  <molecule_chembl_id>  (1076) 
CHEMBL4294949

>  <canonical_smiles>  (1076) 
C=C1CN(Cc2ccc(C(=O)Nc3ccccc3N)cc2)C(=O)c2ccccc21

>  <pchembl_value_mean>  (1076) 
7.52

>  <document_chembl_id>  (1076) 
CHEMBL4400533

$$$$

     RDKit          2D

 29 31  0  0  0  0  0  0  0  0999 V2000
   -2.6491   -1.6339    0.0000 C   0  0  0  0  0  0  0  0  0  0  0  0
   -1.5000   -2.5981    0.0000 C   0  0  0  0  0  0  0  0  0  0  0  0
   -2.6491   -3.5623    0.0000 C   0  0  0  0  0  0  0  0  0  0  0  0
   -0.7500   -3.8971    0.0000 C   0  0  0  0  0  0  0  0  0  0  0  0
    0.7500   -3.8971    0.0000 C   0  0  0  0  0  0  0  0  0  0  0  0
    1.5000   -5.1962    0.0000 O   0  0  0  0  0  0  0  0  0  0  0  0
    1.5000   -2.5981    0.0000 N   0  0  0  0  0  0  0  0  0  0  0  0
    0.7500   -1.2990    0.0000 C   0  0  0  0  0  0  0  0  0  0  0  0
    1.5000    0.0000    0.0000 C   0  0  0  0  0  0  0  0  0  0  0  0
    0.7500    1.2990    0.0000 C   0  0  0  0  0  0  0  0  0  0  0  0
   -0.7500    1.2990    0.0000 C   0  0  0  0  0  0  0  0  0  0  0  0
   -1.5000    2.5981    0.0000 C   0  0  0  0  0  0  0  0  0  0  0  0
   -3.0000    2.5981    0.0000 O   0  0  0  0  0  0  0  0  0  0  0  0
   -0.7500    3.8971    0.0000 N   0  0  0  0  0  0  0  0  0  0  0  0
   -1.5000    5.1962    0.0000 C   0  0  0  0  0  0  0  0  0  0  0  0
   -0.7500    6.4952    0.0000 C   0  0  0  0  0  0  0  0  0  0  0  0
    0.7500    6.4952    0.0000 C   0  0  0  0  0  0  0  0  0  0  0  0
    1.5000    7.7942    0.0000 C   0  0  0  0  0  0  0  0  0  0  0  0
    0.7500    9.0933    0.0000 C   0  0  0  0  0  0  0  0  0  0  0  0
    1.5000   10.3923    0.0000 C   0  0  0  0  0  0  0  0  0  0  0  0
    3.0000   10.3923    0.0000 C   0  0  0  0  0  0  0  0  0  0  0  0
    3.7500   11.6913    0.0000 C   0  0  0  0  0  0  0  0  0  0  0  0
    3.0000   12.9904    0.0000 O   0  0  0  0  0  0  0  0  0  0  0  0
    5.2500   11.6913    0.0000 N   0  0  0  0  0  0  0  0  0  0  0  0
    6.0000   12.9904    0.0000 O   0  0  0  0  0  0  0  0  0  0  0  0
   -0.7500    9.0933    0.0000 C   0  0  0  0  0  0  0  0  0  0  0  0
   -1.5000    7.7942    0.0000 C   0  0  0  0  0  0  0  0  0  0  0  0
   -1.5000    0.0000    0.0000 C   0  0  0  0  0  0  0  0  0  0  0  0
   -0.7500   -1.2990    0.0000 C   0  0  0  0  0  0  0  0  0  0  0  0
  1  2  1  0
  2  3  1  0
  2  4  1  0
  4  5  1  0
  5  6  2  0
  5  7  1  0
  7  8  1  0
  8  9  2  0
  9 10  1  0
 10 11  2  0
 11 12  1  0
 12 13  2  0
 12 14  1  0
 14 15  1  0
 15 16  1  0
 16 17  1  0
 17 18  1  0
 18 19  1  0
 19 20  1  0
 20 21  1  0
 21 22  1  0
 22 23  2  0
 22 24  1  0
 24 25  1  0
 19 26  1  0
 26 27  1  0
 11 28  1  0
 28 29  2  0
 29  2  1  0
 29  8  1  0
 27 16  1  0
M  END
>  <molecule_chembl_id>  (1077) 
CHEMBL3309298

>  <canonical_smiles>  (1077) 
CC1(C)CC(=O)Nc2ccc(C(=O)NCC3CCC(CCC(=O)NO)CC3)cc21

>  <pchembl_value_mean>  (1077) 
7.53

>  <document_chembl_id>  (1077) 
CHEMBL3351757

$$$$

     RDKit          2D

 31 34  0  0  0  0  0  0  0  0999 V2000
    9.7500  -14.2894    0.0000 O   0  0  0  0  0  0  0  0  0  0  0  0
   10.5000  -12.9904    0.0000 C   0  0  0  0  0  0  0  0  0  0  0  0
    9.7500  -11.6913    0.0000 C   0  0  0  0  0  0  0  0  0  0  0  0
    8.2500  -11.6913    0.0000 C   0  0  0  0  0  0  0  0  0  0  0  0
    7.5000  -10.3923    0.0000 C   0  0  0  0  0  0  0  0  0  0  0  0
    6.0000  -10.3923    0.0000 C   0  0  0  0  0  0  0  0  0  0  0  0
    5.2500   -9.0933    0.0000 C   0  0  0  0  0  0  0  0  0  0  0  0
    3.7500   -9.0933    0.0000 C   0  0  0  0  0  0  0  0  0  0  0  0
    3.0000   -7.7942    0.0000 C   0  0  0  0  0  0  0  0  0  0  0  0
    1.5000   -7.7942    0.0000 N   0  0  0  0  0  0  0  0  0  0  0  0
    0.7500   -6.4952    0.0000 C   0  0  0  0  0  0  0  0  0  0  0  0
    1.5000   -5.1962    0.0000 N   0  0  0  0  0  0  0  0  0  0  0  0
    0.7500   -3.8971    0.0000 N   0  0  0  0  0  0  0  0  0  0  0  0
    1.5000   -2.5981    0.0000 C   0  0  0  0  0  0  0  0  0  0  0  0
    3.0000   -2.5981    0.0000 O   0  0  0  0  0  0  0  0  0  0  0  0
    0.7500   -1.2990    0.0000 C   0  0  0  0  0  0  0  0  0  0  0  0
    1.5000    0.0000    0.0000 C   0  0  0  0  0  0  0  0  0  0  0  0
    0.7500    1.2990    0.0000 C   0  0  0  0  0  0  0  0  0  0  0  0
   -0.7500    1.2990    0.0000 C   0  0  0  0  0  0  0  0  0  0  0  0
   -1.5000    0.0000    0.0000 C   0  0  0  0  0  0  0  0  0  0  0  0
   -0.7500   -1.2990    0.0000 C   0  0  0  0  0  0  0  0  0  0  0  0
   -1.5000   -2.5981    0.0000 N   0  0  0  0  0  0  0  0  0  0  0  0
   -0.7500   -3.8971    0.0000 C   0  0  0  0  0  0  0  0  0  0  0  0
   -1.5000   -5.1962    0.0000 C   0  0  0  0  0  0  0  0  0  0  0  0
   -3.0000   -5.1962    0.0000 C   0  0  0  0  0  0  0  0  0  0  0  0
   -3.7500   -6.4952    0.0000 C   0  0  0  0  0  0  0  0  0  0  0  0
   -3.0000   -7.7942    0.0000 C   0  0  0  0  0  0  0  0  0  0  0  0
   -1.5000   -7.7942    0.0000 C   0  0  0  0  0  0  0  0  0  0  0  0
   -0.7500   -6.4952    0.0000 C   0  0  0  0  0  0  0  0  0  0  0  0
   12.0000  -12.9904    0.0000 N   0  0  0  0  0  0  0  0  0  0  0  0
   12.7500  -14.2894    0.0000 O   0  0  0  0  0  0  0  0  0  0  0  0
  1  2  2  0
  2  3  1  0
  3  4  1  0
  4  5  1  0
  5  6  1  0
  6  7  1  0
  7  8  1  0
  8  9  1  0
  9 10  1  0
 10 11  1  0
 11 12  2  0
 12 13  1  0
 13 14  1  0
 14 15  2  0
 14 16  1  0
 16 17  2  0
 17 18  1  0
 18 19  2  0
 19 20  1  0
 20 21  2  0
 21 22  1  0
 22 23  2  0
 23 24  1  0
 24 25  2  0
 25 26  1  0
 26 27  2  0
 27 28  1  0
 28 29  2  0
  2 30  1  0
 30 31  1  0
 29 11  1  0
 23 13  1  0
 29 24  1  0
 21 16  1  0
M  END
>  <molecule_chembl_id>  (1078) 
CHEMBL5084865

>  <canonical_smiles>  (1078) 
O=C(CCCCCCCNc1nn2c(=O)c3ccccc3nc2c2ccccc12)NO

>  <pchembl_value_mean>  (1078) 
7.53

>  <document_chembl_id>  (1078) 
CHEMBL5042505

$$$$

     RDKit          2D

 38 42  0  0  0  0  0  0  0  0999 V2000
   -1.5342  -12.0455    0.0000 O   0  0  0  0  0  0  0  0  0  0  0  0
   -0.3207  -11.1638    0.0000 C   0  0  0  0  0  0  0  0  0  0  0  0
   -0.4775   -9.6721    0.0000 N   0  0  0  0  0  0  0  0  0  0  0  0
   -1.8478   -9.0619    0.0000 C   0  0  0  0  0  0  0  0  0  0  0  0
   -3.0613   -9.9436    0.0000 C   0  0  0  0  0  0  0  0  0  0  0  0
   -2.9046  -11.4354    0.0000 C   0  0  0  0  0  0  0  0  0  0  0  0
   -4.1181  -12.3171    0.0000 C   0  0  0  0  0  0  0  0  0  0  0  0
   -3.9613  -13.8089    0.0000 C   0  0  0  0  0  0  0  0  0  0  0  0
   -5.1748  -14.6905    0.0000 N   0  0  0  0  0  0  0  0  0  0  0  0
   -5.0180  -16.1823    0.0000 C   0  0  0  0  0  0  0  0  0  0  0  0
   -3.6477  -16.7924    0.0000 O   0  0  0  0  0  0  0  0  0  0  0  0
   -6.2315  -17.0640    0.0000 C   0  0  0  0  0  0  0  0  0  0  0  0
   -7.6019  -16.4539    0.0000 C   0  0  0  0  0  0  0  0  0  0  0  0
   -8.8154  -17.3356    0.0000 C   0  0  0  0  0  0  0  0  0  0  0  0
   -8.6586  -18.8274    0.0000 C   0  0  0  0  0  0  0  0  0  0  0  0
   -7.2883  -19.4375    0.0000 C   0  0  0  0  0  0  0  0  0  0  0  0
   -6.0748  -18.5558    0.0000 C   0  0  0  0  0  0  0  0  0  0  0  0
   -4.7044  -19.1659    0.0000 O   0  0  0  0  0  0  0  0  0  0  0  0
   -2.0046   -7.5702    0.0000 C   0  0  0  0  0  0  0  0  0  0  0  0
   -3.3037   -6.8202    0.0000 N   0  0  0  0  0  0  0  0  0  0  0  0
   -2.9918   -5.3529    0.0000 C   0  0  0  0  0  0  0  0  0  0  0  0
   -1.5000   -5.1962    0.0000 C   0  0  0  0  0  0  0  0  0  0  0  0
   -0.7500   -3.8971    0.0000 C   0  0  0  0  0  0  0  0  0  0  0  0
    0.7500   -3.8971    0.0000 C   0  0  0  0  0  0  0  0  0  0  0  0
    1.5000   -2.5981    0.0000 C   0  0  0  0  0  0  0  0  0  0  0  0
    0.7500   -1.2990    0.0000 C   0  0  0  0  0  0  0  0  0  0  0  0
    1.5000    0.0000    0.0000 C   0  0  0  0  0  0  0  0  0  0  0  0
    0.7500    1.2990    0.0000 C   0  0  0  0  0  0  0  0  0  0  0  0
   -0.7500    1.2990    0.0000 C   0  0  0  0  0  0  0  0  0  0  0  0
   -1.5000    0.0000    0.0000 C   0  0  0  0  0  0  0  0  0  0  0  0
   -0.7500   -1.2990    0.0000 C   0  0  0  0  0  0  0  0  0  0  0  0
   -1.5000   -2.5981    0.0000 C   0  0  0  0  0  0  0  0  0  0  0  0
   -0.8899   -6.5665    0.0000 N   0  0  0  0  0  0  0  0  0  0  0  0
    1.0496  -11.7739    0.0000 C   0  0  0  0  0  0  0  0  0  0  0  0
    2.3486  -11.0239    0.0000 C   0  0  0  0  0  0  0  0  0  0  0  0
    3.4634  -12.0276    0.0000 N   0  0  0  0  0  0  0  0  0  0  0  0
    2.8533  -13.3980    0.0000 C   0  0  0  0  0  0  0  0  0  0  0  0
    1.3615  -13.2412    0.0000 S   0  0  0  0  0  0  0  0  0  0  0  0
  1  2  2  0
  2  3  1  0
  3  4  1  0
  4  5  1  0
  5  6  1  0
  6  7  1  0
  7  8  1  0
  8  9  1  0
  9 10  1  0
 10 11  2  0
 10 12  1  0
 12 13  2  0
 13 14  1  0
 14 15  2  0
 15 16  1  0
 16 17  2  0
 17 18  1  0
  4 19  1  0
 19 20  2  0
 20 21  1  0
 21 22  2  0
 22 23  1  0
 23 24  2  0
 24 25  1  0
 25 26  2  0
 26 27  1  0
 27 28  2  0
 28 29  1  0
 29 30  2  0
 30 31  1  0
 31 32  2  0
 22 33  1  0
  2 34  1  0
 34 35  2  0
 35 36  1  0
 36 37  2  0
 37 38  1  0
 17 12  1  0
 33 19  1  0
 38 34  1  0
 32 23  1  0
 31 26  1  0
M  END
>  <molecule_chembl_id>  (1079) 
CHEMBL4753019

>  <canonical_smiles>  (1079) 
O=C(NC(CCCCNC(=O)c1ccccc1O)c1ncc(-c2ccc3ccccc3c2)[nH]1)c1cncs1

>  <pchembl_value_mean>  (1079) 
7.54

>  <document_chembl_id>  (1079) 
CHEMBL4725494

$$$$

     RDKit          2D

 34 37  0  0  0  0  0  0  0  0999 V2000
   -6.2315  -17.0640    0.0000 C   0  0  0  0  0  0  0  0  0  0  0  0
   -5.0180  -16.1823    0.0000 C   0  0  0  0  0  0  0  0  0  0  0  0
   -3.6477  -16.7924    0.0000 O   0  0  0  0  0  0  0  0  0  0  0  0
   -5.1748  -14.6905    0.0000 C   0  0  0  0  0  0  0  0  0  0  0  0
   -3.9613  -13.8089    0.0000 C   0  0  0  0  0  0  0  0  0  0  0  0
   -4.1181  -12.3171    0.0000 C   0  0  0  0  0  0  0  0  0  0  0  0
   -2.9046  -11.4354    0.0000 C   0  0  0  0  0  0  0  0  0  0  0  0
   -3.0613   -9.9436    0.0000 C   0  0  0  0  0  0  0  0  0  0  0  0
   -1.8478   -9.0619    0.0000 C   0  0  0  0  0  0  0  0  0  0  0  0
   -0.4775   -9.6721    0.0000 N   0  0  0  0  0  0  0  0  0  0  0  0
   -0.3207  -11.1638    0.0000 C   0  0  0  0  0  0  0  0  0  0  0  0
   -1.5342  -12.0455    0.0000 O   0  0  0  0  0  0  0  0  0  0  0  0
    1.0496  -11.7739    0.0000 C   0  0  0  0  0  0  0  0  0  0  0  0
    1.2064  -13.2657    0.0000 C   0  0  0  0  0  0  0  0  0  0  0  0
    2.5767  -13.8758    0.0000 C   0  0  0  0  0  0  0  0  0  0  0  0
    3.7902  -12.9942    0.0000 N   0  0  0  0  0  0  0  0  0  0  0  0
    5.1606  -13.6043    0.0000 C   0  0  0  0  0  0  0  0  0  0  0  0
    3.6335  -11.5024    0.0000 C   0  0  0  0  0  0  0  0  0  0  0  0
    2.2631  -10.8923    0.0000 C   0  0  0  0  0  0  0  0  0  0  0  0
   -2.0046   -7.5702    0.0000 C   0  0  0  0  0  0  0  0  0  0  0  0
   -3.3037   -6.8202    0.0000 N   0  0  0  0  0  0  0  0  0  0  0  0
   -2.9918   -5.3529    0.0000 C   0  0  0  0  0  0  0  0  0  0  0  0
   -1.5000   -5.1962    0.0000 C   0  0  0  0  0  0  0  0  0  0  0  0
   -0.7500   -3.8971    0.0000 C   0  0  0  0  0  0  0  0  0  0  0  0
    0.7500   -3.8971    0.0000 C   0  0  0  0  0  0  0  0  0  0  0  0
    1.5000   -2.5981    0.0000 C   0  0  0  0  0  0  0  0  0  0  0  0
    0.7500   -1.2990    0.0000 C   0  0  0  0  0  0  0  0  0  0  0  0
    1.5000    0.0000    0.0000 C   0  0  0  0  0  0  0  0  0  0  0  0
    0.7500    1.2990    0.0000 C   0  0  0  0  0  0  0  0  0  0  0  0
   -0.7500    1.2990    0.0000 C   0  0  0  0  0  0  0  0  0  0  0  0
   -1.5000    0.0000    0.0000 C   0  0  0  0  0  0  0  0  0  0  0  0
   -0.7500   -1.2990    0.0000 C   0  0  0  0  0  0  0  0  0  0  0  0
   -1.5000   -2.5981    0.0000 C   0  0  0  0  0  0  0  0  0  0  0  0
   -0.8899   -6.5665    0.0000 N   0  0  0  0  0  0  0  0  0  0  0  0
  1  2  1  0
  2  3  2  0
  2  4  1  0
  4  5  1  0
  5  6  1  0
  6  7  1  0
  7  8  1  0
  8  9  1  0
  9 10  1  0
 10 11  1  0
 11 12  2  0
 11 13  1  0
 13 14  1  0
 14 15  1  0
 15 16  1  0
 16 17  1  0
 16 18  1  0
 18 19  1  0
  9 20  1  0
 20 21  2  0
 21 22  1  0
 22 23  2  0
 23 24  1  0
 24 25  2  0
 25 26  1  0
 26 27  2  0
 27 28  1  0
 28 29  2  0
 29 30  1  0
 30 31  2  0
 31 32  1  0
 32 33  2  0
 23 34  1  0
 19 13  1  0
 34 20  1  0
 33 24  1  0
 32 27  1  0
M  END
>  <molecule_chembl_id>  (1080) 
CHEMBL468513

>  <canonical_smiles>  (1080) 
CC(=O)CCCCCC(NC(=O)C1CCN(C)CC1)c1ncc(-c2ccc3ccccc3c2)[nH]1

>  <pchembl_value_mean>  (1080) 
7.54

>  <document_chembl_id>  (1080) 
CHEMBL1152225

$$$$

     RDKit          2D

 34 36  0  0  0  0  0  0  0  0999 V2000
   12.7500   -3.8971    0.0000 O   0  0  0  0  0  0  0  0  0  0  0  0
   12.0000   -5.1962    0.0000 C   0  0  0  0  0  0  0  0  0  0  0  0
   10.5000   -5.1962    0.0000 C   0  0  0  0  0  0  0  0  0  0  0  0
    9.7500   -3.8971    0.0000 C   0  0  0  0  0  0  0  0  0  0  0  0
    8.2500   -3.8971    0.0000 C   0  0  0  0  0  0  0  0  0  0  0  0
    7.5000   -2.5981    0.0000 C   0  0  0  0  0  0  0  0  0  0  0  0
    6.0000   -2.5981    0.0000 C   0  0  0  0  0  0  0  0  0  0  0  0
    5.2500   -1.2990    0.0000 C   0  0  0  0  0  0  0  0  0  0  0  0
    3.7500   -1.2990    0.0000 C   0  0  0  0  0  0  0  0  0  0  0  0
    3.0000   -2.5981    0.0000 O   0  0  0  0  0  0  0  0  0  0  0  0
    3.0000    0.0000    0.0000 N   0  0  0  0  0  0  0  0  0  0  0  0
    1.5000    0.0000    0.0000 C   0  0  0  0  0  0  0  0  0  0  0  0
    0.7500   -1.2990    0.0000 C   0  0  0  0  0  0  0  0  0  0  0  0
   -0.7500   -1.2990    0.0000 C   0  0  0  0  0  0  0  0  0  0  0  0
   -1.5000    0.0000    0.0000 C   0  0  0  0  0  0  0  0  0  0  0  0
   -0.7500    1.2990    0.0000 C   0  0  0  0  0  0  0  0  0  0  0  0
   -1.5000    2.5981    0.0000 C   0  0  0  0  0  0  0  0  0  0  0  0
   -2.9918    2.7549    0.0000 C   0  0  0  0  0  0  0  0  0  0  0  0
   -3.3037    4.2221    0.0000 N   0  0  0  0  0  0  0  0  0  0  0  0
   -4.6740    4.8322    0.0000 C   0  0  0  0  0  0  0  0  0  0  0  0
   -4.8308    6.3240    0.0000 C   0  0  0  0  0  0  0  0  0  0  0  0
   -6.2011    6.9341    0.0000 C   0  0  0  0  0  0  0  0  0  0  0  0
   -7.4146    6.0524    0.0000 C   0  0  0  0  0  0  0  0  0  0  0  0
   -8.7849    6.6625    0.0000 C   0  0  0  0  0  0  0  0  0  0  0  0
  -10.1552    7.2726    0.0000 F   0  0  0  0  0  0  0  0  0  0  0  0
   -8.1748    8.0328    0.0000 F   0  0  0  0  0  0  0  0  0  0  0  0
   -9.3950    5.2922    0.0000 F   0  0  0  0  0  0  0  0  0  0  0  0
   -7.2578    4.5606    0.0000 C   0  0  0  0  0  0  0  0  0  0  0  0
   -5.8875    3.9505    0.0000 C   0  0  0  0  0  0  0  0  0  0  0  0
   -2.0046    4.9721    0.0000 N   0  0  0  0  0  0  0  0  0  0  0  0
   -0.8899    3.9684    0.0000 N   0  0  0  0  0  0  0  0  0  0  0  0
    0.7500    1.2990    0.0000 C   0  0  0  0  0  0  0  0  0  0  0  0
   12.7500   -6.4952    0.0000 N   0  0  0  0  0  0  0  0  0  0  0  0
   14.2500   -6.4952    0.0000 O   0  0  0  0  0  0  0  0  0  0  0  0
  1  2  2  0
  2  3  1  0
  3  4  1  0
  4  5  1  0
  5  6  1  0
  6  7  1  0
  7  8  1  0
  8  9  1  0
  9 10  2  0
  9 11  1  0
 11 12  1  0
 12 13  2  0
 13 14  1  0
 14 15  2  0
 15 16  1  0
 16 17  1  0
 17 18  2  0
 18 19  1  0
 19 20  1  0
 20 21  2  0
 21 22  1  0
 22 23  2  0
 23 24  1  0
 24 25  1  0
 24 26  1  0
 24 27  1  0
 23 28  1  0
 28 29  2  0
 19 30  1  0
 30 31  2  0
 16 32  2  0
  2 33  1  0
 33 34  1  0
 32 12  1  0
 31 17  1  0
 29 20  1  0
M  END
>  <molecule_chembl_id>  (1081) 
CHEMBL1088734

>  <canonical_smiles>  (1081) 
O=C(CCCCCCC(=O)Nc1cccc(-c2cn(-c3ccc(C(F)(F)F)cc3)nn2)c1)NO

>  <pchembl_value_mean>  (1081) 
7.54

>  <document_chembl_id>  (1081) 
CHEMBL1154884

$$$$

     RDKit          2D

 28 31  0  0  0  0  0  0  0  0999 V2000
    3.7500    1.2990    0.0000 O   0  0  0  0  0  0  0  0  0  0  0  0
    3.0000    0.0000    0.0000 C   0  0  0  0  0  0  0  0  0  0  0  0
    3.7500   -1.2990    0.0000 N   0  0  0  0  0  0  0  0  0  0  0  0
    5.2500   -1.2990    0.0000 O   0  0  0  0  0  0  0  0  0  0  0  0
    1.5000    0.0000    0.0000 C   0  0  0  0  0  0  0  0  0  0  0  0
    0.7500   -1.2990    0.0000 C   0  0  0  0  0  0  0  0  0  0  0  0
   -0.7500   -1.2990    0.0000 C   0  0  0  0  0  0  0  0  0  0  0  0
   -1.5000    0.0000    0.0000 C   0  0  0  0  0  0  0  0  0  0  0  0
   -3.0000    0.0000    0.0000 C   0  0  0  0  0  0  0  0  0  0  0  0
   -3.7500    1.2990    0.0000 N   0  0  0  0  0  0  0  0  0  0  0  0
   -5.2418    1.4558    0.0000 C   0  0  0  0  0  0  0  0  0  0  0  0
   -5.5537    2.9231    0.0000 C   0  0  0  0  0  0  0  0  0  0  0  0
   -6.9240    3.5332    0.0000 C   0  0  0  0  0  0  0  0  0  0  0  0
   -7.0808    5.0249    0.0000 C   0  0  0  0  0  0  0  0  0  0  0  0
   -8.4511    5.6350    0.0000 C   0  0  0  0  0  0  0  0  0  0  0  0
   -9.6646    4.7534    0.0000 C   0  0  0  0  0  0  0  0  0  0  0  0
  -11.0349    5.3635    0.0000 C   0  0  0  0  0  0  0  0  0  0  0  0
  -11.1917    6.8553    0.0000 N   0  0  0  0  0  0  0  0  0  0  0  0
  -12.4908    7.6053    0.0000 C   0  0  0  0  0  0  0  0  0  0  0  0
  -12.1789    9.0725    0.0000 C   0  0  0  0  0  0  0  0  0  0  0  0
  -10.6871    9.2293    0.0000 C   0  0  0  0  0  0  0  0  0  0  0  0
  -10.0770    7.8590    0.0000 C   0  0  0  0  0  0  0  0  0  0  0  0
   -9.5078    3.2616    0.0000 C   0  0  0  0  0  0  0  0  0  0  0  0
   -8.1375    2.6515    0.0000 C   0  0  0  0  0  0  0  0  0  0  0  0
   -4.2546    3.6731    0.0000 N   0  0  0  0  0  0  0  0  0  0  0  0
   -3.1399    2.6694    0.0000 N   0  0  0  0  0  0  0  0  0  0  0  0
   -0.7500    1.2990    0.0000 C   0  0  0  0  0  0  0  0  0  0  0  0
    0.7500    1.2990    0.0000 C   0  0  0  0  0  0  0  0  0  0  0  0
  1  2  2  0
  2  3  1  0
  3  4  1  0
  2  5  1  0
  5  6  2  0
  6  7  1  0
  7  8  2  0
  8  9  1  0
  9 10  1  0
 10 11  1  0
 11 12  2  0
 12 13  1  0
 13 14  2  0
 14 15  1  0
 15 16  2  0
 16 17  1  0
 17 18  1  0
 18 19  1  0
 19 20  1  0
 20 21  1  0
 21 22  1  0
 16 23  1  0
 23 24  2  0
 12 25  1  0
 25 26  2  0
  8 27  1  0
 27 28  2  0
 28  5  1  0
 26 10  1  0
 24 13  1  0
 22 18  1  0
M  END
>  <molecule_chembl_id>  (1082) 
CHEMBL4090165

>  <canonical_smiles>  (1082) 
O=C(NO)c1ccc(Cn2cc(-c3ccc(CN4CCCC4)cc3)nn2)cc1

>  <pchembl_value_mean>  (1082) 
7.54

>  <document_chembl_id>  (1082) 
CHEMBL4033665

$$$$

     RDKit          2D

 27 29  0  0  0  0  0  0  0  0999 V2000
  -12.9904   -9.6073    0.0000 C   0  0  0  0  0  0  0  0  0  0  0  0
  -11.6913  -10.3573    0.0000 C   0  0  0  0  0  0  0  0  0  0  0  0
  -10.3923   -9.6073    0.0000 C   0  0  0  0  0  0  0  0  0  0  0  0
   -9.0933  -10.3573    0.0000 N   0  0  0  0  0  0  0  0  0  0  0  0
   -7.7942   -9.6073    0.0000 N   0  0  0  0  0  0  0  0  0  0  0  0
   -6.4952  -10.3573    0.0000 C   0  0  0  0  0  0  0  0  0  0  0  0
   -6.4952  -11.8573    0.0000 O   0  0  0  0  0  0  0  0  0  0  0  0
   -5.1962   -9.6073    0.0000 C   0  0  0  0  0  0  0  0  0  0  0  0
   -5.1962   -8.1073    0.0000 C   0  0  0  0  0  0  0  0  0  0  0  0
   -3.8971   -7.3573    0.0000 C   0  0  0  0  0  0  0  0  0  0  0  0
   -2.5981   -8.1073    0.0000 C   0  0  0  0  0  0  0  0  0  0  0  0
   -1.2990   -7.3573    0.0000 C   0  0  0  0  0  0  0  0  0  0  0  0
   -1.2990   -5.8573    0.0000 N   0  0  0  0  0  0  0  0  0  0  0  0
   -0.0000   -5.1073    0.0000 C   0  0  0  0  0  0  0  0  0  0  0  0
    1.2990   -5.8573    0.0000 O   0  0  0  0  0  0  0  0  0  0  0  0
   -0.0000   -3.6073    0.0000 C   0  0  0  0  0  0  0  0  0  0  0  0
    1.2135   -2.7256    0.0000 C   0  0  0  0  0  0  0  0  0  0  0  0
    0.7500   -1.2990    0.0000 C   0  0  0  0  0  0  0  0  0  0  0  0
    1.5000    0.0000    0.0000 C   0  0  0  0  0  0  0  0  0  0  0  0
    0.7500    1.2990    0.0000 C   0  0  0  0  0  0  0  0  0  0  0  0
    1.5000    2.5981    0.0000 F   0  0  0  0  0  0  0  0  0  0  0  0
   -0.7500    1.2990    0.0000 C   0  0  0  0  0  0  0  0  0  0  0  0
   -1.5000    0.0000    0.0000 C   0  0  0  0  0  0  0  0  0  0  0  0
   -0.7500   -1.2990    0.0000 C   0  0  0  0  0  0  0  0  0  0  0  0
   -1.2135   -2.7256    0.0000 O   0  0  0  0  0  0  0  0  0  0  0  0
   -2.5981   -9.6073    0.0000 C   0  0  0  0  0  0  0  0  0  0  0  0
   -3.8971  -10.3573    0.0000 C   0  0  0  0  0  0  0  0  0  0  0  0
  1  2  1  0
  2  3  1  0
  3  4  1  0
  4  5  1  0
  5  6  1  0
  6  7  2  0
  6  8  1  0
  8  9  2  0
  9 10  1  0
 10 11  2  0
 11 12  1  0
 12 13  1  0
 13 14  1  0
 14 15  2  0
 14 16  1  0
 16 17  2  0
 17 18  1  0
 18 19  2  0
 19 20  1  0
 20 21  1  0
 20 22  2  0
 22 23  1  0
 23 24  2  0
 24 25  1  0
 11 26  1  0
 26 27  2  0
 27  8  1  0
 25 16  1  0
 24 18  1  0
M  END
>  <molecule_chembl_id>  (1083) 
CHEMBL5093836

>  <canonical_smiles>  (1083) 
CCCNNC(=O)c1ccc(CNC(=O)c2cc3cc(F)ccc3o2)cc1

>  <pchembl_value_mean>  (1083) 
7.55

>  <document_chembl_id>  (1083) 
CHEMBL5042504

$$$$

     RDKit          2D

 38 41  0  0  0  0  0  0  0  0999 V2000
  -16.5941   -6.3572    0.0000 C   0  0  0  0  0  0  0  0  0  0  0  0
  -15.4794   -7.3609    0.0000 C   0  0  0  0  0  0  0  0  0  0  0  0
  -14.0528   -6.8974    0.0000 C   0  0  0  0  0  0  0  0  0  0  0  0
  -12.9381   -7.9010    0.0000 N   0  0  0  0  0  0  0  0  0  0  0  0
  -11.5115   -7.4375    0.0000 N   0  0  0  0  0  0  0  0  0  0  0  0
  -10.3968   -8.4412    0.0000 C   0  0  0  0  0  0  0  0  0  0  0  0
  -10.7086   -9.9084    0.0000 O   0  0  0  0  0  0  0  0  0  0  0  0
   -8.9702   -7.9777    0.0000 C   0  0  0  0  0  0  0  0  0  0  0  0
   -8.6583   -6.5105    0.0000 C   0  0  0  0  0  0  0  0  0  0  0  0
   -7.2317   -6.0469    0.0000 C   0  0  0  0  0  0  0  0  0  0  0  0
   -6.1170   -7.0506    0.0000 C   0  0  0  0  0  0  0  0  0  0  0  0
   -4.6904   -6.5871    0.0000 N   0  0  0  0  0  0  0  0  0  0  0  0
   -4.3786   -5.1199    0.0000 C   0  0  0  0  0  0  0  0  0  0  0  0
   -5.4933   -4.1162    0.0000 O   0  0  0  0  0  0  0  0  0  0  0  0
   -2.9520   -4.6564    0.0000 C   0  0  0  0  0  0  0  0  0  0  0  0
   -2.6401   -3.1891    0.0000 C   0  0  0  0  0  0  0  0  0  0  0  0
   -1.2135   -2.7256    0.0000 C   0  0  0  0  0  0  0  0  0  0  0  0
   -0.0000   -3.6073    0.0000 C   0  0  0  0  0  0  0  0  0  0  0  0
    1.2135   -2.7256    0.0000 N   0  0  0  0  0  0  0  0  0  0  0  0
    0.7500   -1.2990    0.0000 C   0  0  0  0  0  0  0  0  0  0  0  0
    1.5000    0.0000    0.0000 C   0  0  0  0  0  0  0  0  0  0  0  0
    0.7500    1.2990    0.0000 C   0  0  0  0  0  0  0  0  0  0  0  0
   -0.7500    1.2990    0.0000 C   0  0  0  0  0  0  0  0  0  0  0  0
   -1.5000    0.0000    0.0000 C   0  0  0  0  0  0  0  0  0  0  0  0
   -0.7500   -1.2990    0.0000 C   0  0  0  0  0  0  0  0  0  0  0  0
   -1.8373   -5.6601    0.0000 N   0  0  0  0  0  0  0  0  0  0  0  0
   -2.1491   -7.1273    0.0000 C   0  0  0  0  0  0  0  0  0  0  0  0
   -3.5757   -7.5908    0.0000 O   0  0  0  0  0  0  0  0  0  0  0  0
   -1.0344   -8.1310    0.0000 C   0  0  0  0  0  0  0  0  0  0  0  0
   -1.3463   -9.5982    0.0000 C   0  0  0  0  0  0  0  0  0  0  0  0
   -0.2316  -10.6019    0.0000 C   0  0  0  0  0  0  0  0  0  0  0  0
    1.1950  -10.1384    0.0000 C   0  0  0  0  0  0  0  0  0  0  0  0
    2.3097  -11.1421    0.0000 O   0  0  0  0  0  0  0  0  0  0  0  0
    1.9979  -12.6093    0.0000 C   0  0  0  0  0  0  0  0  0  0  0  0
    1.5069   -8.6712    0.0000 C   0  0  0  0  0  0  0  0  0  0  0  0
    0.3922   -7.6675    0.0000 C   0  0  0  0  0  0  0  0  0  0  0  0
   -6.4289   -8.5179    0.0000 C   0  0  0  0  0  0  0  0  0  0  0  0
   -7.8555   -8.9814    0.0000 C   0  0  0  0  0  0  0  0  0  0  0  0
  1  2  1  0
  2  3  1  0
  3  4  1  0
  4  5  1  0
  5  6  1  0
  6  7  2  0
  6  8  1  0
  8  9  2  0
  9 10  1  0
 10 11  2  0
 11 12  1  0
 12 13  1  0
 13 14  2  0
 13 15  1  0
 15 16  1  0
 16 17  1  0
 17 18  2  0
 18 19  1  0
 19 20  1  0
 20 21  2  0
 21 22  1  0
 22 23  2  0
 23 24  1  0
 24 25  2  0
 15 26  1  0
 26 27  1  0
 27 28  2  0
 27 29  1  0
 29 30  2  0
 30 31  1  0
 31 32  2  0
 32 33  1  0
 33 34  1  0
 32 35  1  0
 35 36  2  0
 11 37  1  0
 37 38  2  0
 38  8  1  0
 25 17  1  0
 36 29  1  0
 25 20  1  0
M  END
>  <molecule_chembl_id>  (1084) 
CHEMBL4063938

>  <canonical_smiles>  (1084) 
CCCNNC(=O)c1ccc(NC(=O)C(Cc2c[nH]c3ccccc23)NC(=O)c2ccc(OC)cc2)cc1

>  <pchembl_value_mean>  (1084) 
7.55

>  <document_chembl_id>  (1084) 
CHEMBL4020839

$$$$

     RDKit          2D

 19 20  0  0  0  0  0  0  0  0999 V2000
    3.7500    1.2990    0.0000 O   0  0  0  0  0  0  0  0  0  0  0  0
    3.0000    0.0000    0.0000 C   0  0  0  0  0  0  0  0  0  0  0  0
    3.7500   -1.2990    0.0000 N   0  0  0  0  0  0  0  0  0  0  0  0
    5.2500   -1.2990    0.0000 O   0  0  0  0  0  0  0  0  0  0  0  0
    1.5000    0.0000    0.0000 C   0  0  0  0  0  0  0  0  0  0  0  0
    0.7500   -1.2990    0.0000 C   0  0  0  0  0  0  0  0  0  0  0  0
   -0.7500   -1.2990    0.0000 N   0  0  0  0  0  0  0  0  0  0  0  0
   -1.5000    0.0000    0.0000 C   0  0  0  0  0  0  0  0  0  0  0  0
   -3.0000    0.0000    0.0000 N   0  0  0  0  0  0  0  0  0  0  0  0
   -3.7500    1.2990    0.0000 C   0  0  0  0  0  0  0  0  0  0  0  0
   -5.2500    1.2990    0.0000 C   0  0  0  0  0  0  0  0  0  0  0  0
   -6.0000    2.5981    0.0000 C   0  0  0  0  0  0  0  0  0  0  0  0
   -7.5000    2.5981    0.0000 C   0  0  0  0  0  0  0  0  0  0  0  0
   -8.2500    1.2990    0.0000 C   0  0  0  0  0  0  0  0  0  0  0  0
   -7.5000    0.0000    0.0000 C   0  0  0  0  0  0  0  0  0  0  0  0
   -8.2500   -1.2990    0.0000 Cl  0  0  0  0  0  0  0  0  0  0  0  0
   -6.0000    0.0000    0.0000 C   0  0  0  0  0  0  0  0  0  0  0  0
   -0.7500    1.2990    0.0000 N   0  0  0  0  0  0  0  0  0  0  0  0
    0.7500    1.2990    0.0000 C   0  0  0  0  0  0  0  0  0  0  0  0
  1  2  2  0
  2  3  1  0
  3  4  1  0
  2  5  1  0
  5  6  2  0
  6  7  1  0
  7  8  2  0
  8  9  1  0
  9 10  1  0
 10 11  1  0
 11 12  2  0
 12 13  1  0
 13 14  2  0
 14 15  1  0
 15 16  1  0
 15 17  2  0
  8 18  1  0
 18 19  2  0
 19  5  1  0
 17 11  1  0
M  END
>  <molecule_chembl_id>  (1085) 
CHEMBL3655917

>  <canonical_smiles>  (1085) 
O=C(NO)c1cnc(NCc2cccc(Cl)c2)nc1

>  <pchembl_value_mean>  (1085) 
7.55

>  <document_chembl_id>  (1085) 
CHEMBL3639071

$$$$

     RDKit          2D

 42 44  0  0  0  0  0  0  0  0999 V2000
   -4.6532  -24.0310    0.0000 C   0  0  0  0  0  0  0  0  0  0  0  0
   -5.0414  -22.5822    0.0000 C   0  0  0  0  0  0  0  0  0  0  0  0
   -3.9807  -21.5215    0.0000 C   0  0  0  0  0  0  0  0  0  0  0  0
   -4.3690  -20.0726    0.0000 C   0  0  0  0  0  0  0  0  0  0  0  0
   -3.3083  -19.0119    0.0000 C   0  0  0  0  0  0  0  0  0  0  0  0
   -3.6965  -17.5631    0.0000 C   0  0  0  0  0  0  0  0  0  0  0  0
   -2.6359  -16.5024    0.0000 C   0  0  0  0  0  0  0  0  0  0  0  0
   -3.0241  -15.0535    0.0000 C   0  0  0  0  0  0  0  0  0  0  0  0
   -4.4730  -14.6653    0.0000 O   0  0  0  0  0  0  0  0  0  0  0  0
   -1.9634  -13.9928    0.0000 S   0  0  0  0  0  0  0  0  0  0  0  0
   -2.3517  -12.5440    0.0000 C   0  0  0  0  0  0  0  0  0  0  0  0
   -1.2910  -11.4833    0.0000 C   0  0  0  0  0  0  0  0  0  0  0  0
   -1.6792  -10.0344    0.0000 C   0  0  0  0  0  0  0  0  0  0  0  0
   -0.6186   -8.9738    0.0000 C   0  0  0  0  0  0  0  0  0  0  0  0
   -1.0068   -7.5249    0.0000 C   0  0  0  0  0  0  0  0  0  0  0  0
    0.3385   -6.8614    0.0000 C   0  0  0  0  0  0  0  0  0  0  0  0
    1.3275   -5.7337    0.0000 C   0  0  0  0  0  0  0  0  0  0  0  0
    2.6266   -6.4837    0.0000 O   0  0  0  0  0  0  0  0  0  0  0  0
    1.8097   -4.3133    0.0000 N   0  0  0  0  0  0  0  0  0  0  0  0
    1.7116   -2.8165    0.0000 C   0  0  0  0  0  0  0  0  0  0  0  0
    0.7500   -1.2990    0.0000 C   0  0  0  0  0  0  0  0  0  0  0  0
    1.5000    0.0000    0.0000 C   0  0  0  0  0  0  0  0  0  0  0  0
    0.7500    1.2990    0.0000 C   0  0  0  0  0  0  0  0  0  0  0  0
   -0.7500    1.2990    0.0000 C   0  0  0  0  0  0  0  0  0  0  0  0
   -1.5000    0.0000    0.0000 C   0  0  0  0  0  0  0  0  0  0  0  0
   -0.7500   -1.2990    0.0000 N   0  0  0  0  0  0  0  0  0  0  0  0
   -2.9968   -0.0981    0.0000 C   0  0  0  0  0  0  0  0  0  0  0  0
   -4.1831    0.8823    0.0000 C   0  0  0  0  0  0  0  0  0  0  0  0
   -5.6702    0.6866    0.0000 C   0  0  0  0  0  0  0  0  0  0  0  0
   -6.2443   -0.6993    0.0000 C   0  0  0  0  0  0  0  0  0  0  0  0
   -5.3311   -1.8893    0.0000 C   0  0  0  0  0  0  0  0  0  0  0  0
   -4.3421   -0.7615    0.0000 N   0  0  0  0  0  0  0  0  0  0  0  0
   -5.8133   -3.3097    0.0000 C   0  0  0  0  0  0  0  0  0  0  0  0
   -7.3004   -3.1139    0.0000 O   0  0  0  0  0  0  0  0  0  0  0  0
   -5.7152   -4.8065    0.0000 N   0  0  0  0  0  0  0  0  0  0  0  0
   -5.0517   -6.1518    0.0000 C   0  0  0  0  0  0  0  0  0  0  0  0
   -6.2418   -7.0649    0.0000 C   0  0  0  0  0  0  0  0  0  0  0  0
   -7.6276   -6.4909    0.0000 C   0  0  0  0  0  0  0  0  0  0  0  0
   -6.0460   -8.5521    0.0000 C   0  0  0  0  0  0  0  0  0  0  0  0
   -3.9240   -7.1408    0.0000 C   0  0  0  0  0  0  0  0  0  0  0  0
   -4.6740   -8.4398    0.0000 O   0  0  0  0  0  0  0  0  0  0  0  0
   -2.5036   -7.6230    0.0000 O   0  0  0  0  0  0  0  0  0  0  0  0
  1  2  1  0
  2  3  1  0
  3  4  1  0
  4  5  1  0
  5  6  1  0
  6  7  1  0
  7  8  1  0
  8  9  2  0
  8 10  1  0
 10 11  1  0
 11 12  1  0
 12 13  1  0
 13 14  2  3
 14 15  1  0
 15 16  1  0
 16 17  1  0
 17 18  2  0
 17 19  1  0
 19 20  1  0
 20 21  1  0
 21 22  1  0
 22 23  2  0
 23 24  1  0
 24 25  2  0
 25 26  1  0
 25 27  1  0
 27 28  1  0
 28 29  2  0
 29 30  1  0
 30 31  2  0
 31 32  1  0
 31 33  1  0
 33 34  2  0
 33 35  1  0
 35 36  1  0
 36 37  1  0
 37 38  1  0
 37 39  1  0
 36 40  1  0
 40 41  2  0
 40 42  1  0
 42 15  1  0
 26 21  2  0
 32 27  2  0
M  END
>  <molecule_chembl_id>  (1086) 
CHEMBL4798363

>  <canonical_smiles>  (1086) 
CCCCCCCC(=O)SCCC=CC1CC(=O)NCc2cccc(n2)-c2cccc(n2)C(=O)NC(C(C)C)C(=O)O1

>  <pchembl_value_mean>  (1086) 
7.55

>  <document_chembl_id>  (1086) 
CHEMBL4680097

$$$$

     RDKit          2D

 22 24  0  0  0  0  0  0  0  0999 V2000
    3.7500    1.2990    0.0000 O   0  0  0  0  0  0  0  0  0  0  0  0
    3.0000    0.0000    0.0000 C   0  0  0  0  0  0  0  0  0  0  0  0
    3.7500   -1.2990    0.0000 N   0  0  0  0  0  0  0  0  0  0  0  0
    5.2500   -1.2990    0.0000 O   0  0  0  0  0  0  0  0  0  0  0  0
    1.5000    0.0000    0.0000 C   0  0  0  0  0  0  0  0  0  0  0  0
    0.7500   -1.2990    0.0000 C   0  0  0  0  0  0  0  0  0  0  0  0
   -0.7500   -1.2990    0.0000 N   0  0  0  0  0  0  0  0  0  0  0  0
   -1.5000    0.0000    0.0000 C   0  0  0  0  0  0  0  0  0  0  0  0
   -3.0000    0.0000    0.0000 N   0  0  0  0  0  0  0  0  0  0  0  0
   -3.7500    1.2990    0.0000 C   0  0  0  0  0  0  0  0  0  0  0  0
   -5.1595    0.7860    0.0000 C   0  0  0  0  0  0  0  0  0  0  0  0
   -5.4200   -0.6912    0.0000 C   0  0  0  0  0  0  0  0  0  0  0  0
   -6.8296   -1.2042    0.0000 C   0  0  0  0  0  0  0  0  0  0  0  0
   -7.9786   -0.2401    0.0000 C   0  0  0  0  0  0  0  0  0  0  0  0
   -9.3882   -0.7531    0.0000 C   0  0  0  0  0  0  0  0  0  0  0  0
   -9.6486   -2.2303    0.0000 O   0  0  0  0  0  0  0  0  0  0  0  0
   -7.7181    1.2372    0.0000 C   0  0  0  0  0  0  0  0  0  0  0  0
   -6.3086    1.7502    0.0000 C   0  0  0  0  0  0  0  0  0  0  0  0
   -4.0105    2.7762    0.0000 C   0  0  0  0  0  0  0  0  0  0  0  0
   -2.6009    2.2632    0.0000 C   0  0  0  0  0  0  0  0  0  0  0  0
   -0.7500    1.2990    0.0000 N   0  0  0  0  0  0  0  0  0  0  0  0
    0.7500    1.2990    0.0000 C   0  0  0  0  0  0  0  0  0  0  0  0
  1  2  2  0
  2  3  1  0
  3  4  1  0
  2  5  1  0
  5  6  2  0
  6  7  1  0
  7  8  2  0
  8  9  1  0
  9 10  1  0
 10 11  1  0
 11 12  2  0
 12 13  1  0
 13 14  2  0
 14 15  1  0
 15 16  1  0
 14 17  1  0
 17 18  2  0
 10 19  1  0
 19 20  1  0
  8 21  1  0
 21 22  2  0
 22  5  1  0
 20 10  1  0
 18 11  1  0
M  END
>  <molecule_chembl_id>  (1087) 
CHEMBL3655974

>  <canonical_smiles>  (1087) 
O=C(NO)c1cnc(NC2(c3ccc(CO)cc3)CC2)nc1

>  <pchembl_value_mean>  (1087) 
7.55

>  <document_chembl_id>  (1087) 
CHEMBL3639071

$$$$

     RDKit          2D

 30 33  0  0  0  0  0  0  0  0999 V2000
   10.5000  -10.3923    0.0000 O   0  0  0  0  0  0  0  0  0  0  0  0
    9.7500  -11.6913    0.0000 C   0  0  0  0  0  0  0  0  0  0  0  0
    8.2500  -11.6913    0.0000 C   0  0  0  0  0  0  0  0  0  0  0  0
    7.5000  -10.3923    0.0000 C   0  0  0  0  0  0  0  0  0  0  0  0
    6.0000  -10.3923    0.0000 C   0  0  0  0  0  0  0  0  0  0  0  0
    5.2500   -9.0933    0.0000 C   0  0  0  0  0  0  0  0  0  0  0  0
    3.7500   -9.0933    0.0000 C   0  0  0  0  0  0  0  0  0  0  0  0
    3.0000   -7.7942    0.0000 C   0  0  0  0  0  0  0  0  0  0  0  0
    1.5000   -7.7942    0.0000 N   0  0  0  0  0  0  0  0  0  0  0  0
    0.7500   -6.4952    0.0000 C   0  0  0  0  0  0  0  0  0  0  0  0
    1.5000   -5.1962    0.0000 N   0  0  0  0  0  0  0  0  0  0  0  0
    0.7500   -3.8971    0.0000 N   0  0  0  0  0  0  0  0  0  0  0  0
    1.5000   -2.5981    0.0000 C   0  0  0  0  0  0  0  0  0  0  0  0
    3.0000   -2.5981    0.0000 O   0  0  0  0  0  0  0  0  0  0  0  0
    0.7500   -1.2990    0.0000 C   0  0  0  0  0  0  0  0  0  0  0  0
    1.5000    0.0000    0.0000 C   0  0  0  0  0  0  0  0  0  0  0  0
    0.7500    1.2990    0.0000 C   0  0  0  0  0  0  0  0  0  0  0  0
   -0.7500    1.2990    0.0000 C   0  0  0  0  0  0  0  0  0  0  0  0
   -1.5000    0.0000    0.0000 C   0  0  0  0  0  0  0  0  0  0  0  0
   -0.7500   -1.2990    0.0000 C   0  0  0  0  0  0  0  0  0  0  0  0
   -1.5000   -2.5981    0.0000 N   0  0  0  0  0  0  0  0  0  0  0  0
   -0.7500   -3.8971    0.0000 C   0  0  0  0  0  0  0  0  0  0  0  0
   -1.5000   -5.1962    0.0000 C   0  0  0  0  0  0  0  0  0  0  0  0
   -3.0000   -5.1962    0.0000 C   0  0  0  0  0  0  0  0  0  0  0  0
   -3.7500   -6.4952    0.0000 C   0  0  0  0  0  0  0  0  0  0  0  0
   -3.0000   -7.7942    0.0000 C   0  0  0  0  0  0  0  0  0  0  0  0
   -1.5000   -7.7942    0.0000 C   0  0  0  0  0  0  0  0  0  0  0  0
   -0.7500   -6.4952    0.0000 C   0  0  0  0  0  0  0  0  0  0  0  0
   10.5000  -12.9904    0.0000 N   0  0  0  0  0  0  0  0  0  0  0  0
   12.0000  -12.9904    0.0000 O   0  0  0  0  0  0  0  0  0  0  0  0
  1  2  2  0
  2  3  1  0
  3  4  1  0
  4  5  1  0
  5  6  1  0
  6  7  1  0
  7  8  1  0
  8  9  1  0
  9 10  1  0
 10 11  2  0
 11 12  1  0
 12 13  1  0
 13 14  2  0
 13 15  1  0
 15 16  2  0
 16 17  1  0
 17 18  2  0
 18 19  1  0
 19 20  2  0
 20 21  1  0
 21 22  2  0
 22 23  1  0
 23 24  2  0
 24 25  1  0
 25 26  2  0
 26 27  1  0
 27 28  2  0
  2 29  1  0
 29 30  1  0
 28 10  1  0
 22 12  1  0
 28 23  1  0
 20 15  1  0
M  END
>  <molecule_chembl_id>  (1088) 
CHEMBL5087773

>  <canonical_smiles>  (1088) 
O=C(CCCCCCNc1nn2c(=O)c3ccccc3nc2c2ccccc12)NO

>  <pchembl_value_mean>  (1088) 
7.55

>  <document_chembl_id>  (1088) 
CHEMBL5042505

$$$$

     RDKit          2D

 34 36  0  0  0  0  0  0  0  0999 V2000
   12.7500   -3.8971    0.0000 O   0  0  0  0  0  0  0  0  0  0  0  0
   12.0000   -5.1962    0.0000 C   0  0  0  0  0  0  0  0  0  0  0  0
   10.5000   -5.1962    0.0000 C   0  0  0  0  0  0  0  0  0  0  0  0
    9.7500   -3.8971    0.0000 C   0  0  0  0  0  0  0  0  0  0  0  0
    8.2500   -3.8971    0.0000 C   0  0  0  0  0  0  0  0  0  0  0  0
    7.5000   -2.5981    0.0000 C   0  0  0  0  0  0  0  0  0  0  0  0
    6.0000   -2.5981    0.0000 C   0  0  0  0  0  0  0  0  0  0  0  0
    5.2500   -1.2990    0.0000 C   0  0  0  0  0  0  0  0  0  0  0  0
    3.7500   -1.2990    0.0000 C   0  0  0  0  0  0  0  0  0  0  0  0
    3.0000   -2.5981    0.0000 O   0  0  0  0  0  0  0  0  0  0  0  0
    3.0000    0.0000    0.0000 N   0  0  0  0  0  0  0  0  0  0  0  0
    1.5000    0.0000    0.0000 C   0  0  0  0  0  0  0  0  0  0  0  0
    0.7500   -1.2990    0.0000 C   0  0  0  0  0  0  0  0  0  0  0  0
   -0.7500   -1.2990    0.0000 C   0  0  0  0  0  0  0  0  0  0  0  0
   -1.5000    0.0000    0.0000 C   0  0  0  0  0  0  0  0  0  0  0  0
   -0.7500    1.2990    0.0000 C   0  0  0  0  0  0  0  0  0  0  0  0
   -1.5000    2.5981    0.0000 C   0  0  0  0  0  0  0  0  0  0  0  0
   -2.9918    2.7549    0.0000 C   0  0  0  0  0  0  0  0  0  0  0  0
   -3.3037    4.2221    0.0000 N   0  0  0  0  0  0  0  0  0  0  0  0
   -4.6740    4.8322    0.0000 C   0  0  0  0  0  0  0  0  0  0  0  0
   -4.8308    6.3240    0.0000 C   0  0  0  0  0  0  0  0  0  0  0  0
   -6.2011    6.9341    0.0000 C   0  0  0  0  0  0  0  0  0  0  0  0
   -6.3579    8.4259    0.0000 C   0  0  0  0  0  0  0  0  0  0  0  0
   -5.1443    9.3075    0.0000 O   0  0  0  0  0  0  0  0  0  0  0  0
   -7.4146    6.0524    0.0000 C   0  0  0  0  0  0  0  0  0  0  0  0
   -7.2578    4.5606    0.0000 C   0  0  0  0  0  0  0  0  0  0  0  0
   -8.4713    3.6789    0.0000 C   0  0  0  0  0  0  0  0  0  0  0  0
   -9.8417    4.2890    0.0000 O   0  0  0  0  0  0  0  0  0  0  0  0
   -5.8875    3.9505    0.0000 C   0  0  0  0  0  0  0  0  0  0  0  0
   -2.0046    4.9721    0.0000 N   0  0  0  0  0  0  0  0  0  0  0  0
   -0.8899    3.9684    0.0000 N   0  0  0  0  0  0  0  0  0  0  0  0
    0.7500    1.2990    0.0000 C   0  0  0  0  0  0  0  0  0  0  0  0
   12.7500   -6.4952    0.0000 N   0  0  0  0  0  0  0  0  0  0  0  0
   14.2500   -6.4952    0.0000 O   0  0  0  0  0  0  0  0  0  0  0  0
  1  2  2  0
  2  3  1  0
  3  4  1  0
  4  5  1  0
  5  6  1  0
  6  7  1  0
  7  8  1  0
  8  9  1  0
  9 10  2  0
  9 11  1  0
 11 12  1  0
 12 13  2  0
 13 14  1  0
 14 15  2  0
 15 16  1  0
 16 17  1  0
 17 18  2  0
 18 19  1  0
 19 20  1  0
 20 21  2  0
 21 22  1  0
 22 23  1  0
 23 24  1  0
 22 25  2  0
 25 26  1  0
 26 27  1  0
 27 28  1  0
 26 29  2  0
 19 30  1  0
 30 31  2  0
 16 32  2  0
  2 33  1  0
 33 34  1  0
 32 12  1  0
 31 17  1  0
 29 20  1  0
M  END
>  <molecule_chembl_id>  (1089) 
CHEMBL1088736

>  <canonical_smiles>  (1089) 
O=C(CCCCCCC(=O)Nc1cccc(-c2cn(-c3cc(CO)cc(CO)c3)nn2)c1)NO

>  <pchembl_value_mean>  (1089) 
7.56

>  <document_chembl_id>  (1089) 
CHEMBL1154884

$$$$

     RDKit          2D

 33 36  0  0  0  0  0  0  0  0999 V2000
   -7.5000   -5.1962    0.0000 O   0  0  0  0  0  0  0  0  0  0  0  0
   -6.0000   -5.1962    0.0000 C   0  0  0  0  0  0  0  0  0  0  0  0
   -5.2500   -6.4952    0.0000 N   0  0  0  0  0  0  0  0  0  0  0  0
   -6.0000   -7.7942    0.0000 O   0  0  0  0  0  0  0  0  0  0  0  0
   -5.2500   -3.8971    0.0000 C   0  0  0  0  0  0  0  0  0  0  0  0
   -3.7500   -3.8971    0.0000 C   0  0  0  0  0  0  0  0  0  0  0  0
   -3.0000   -2.5981    0.0000 N   0  0  0  0  0  0  0  0  0  0  0  0
   -3.7500   -1.2990    0.0000 C   0  0  0  0  0  0  0  0  0  0  0  0
   -3.0000    0.0000    0.0000 N   0  0  0  0  0  0  0  0  0  0  0  0
   -3.7500    1.2990    0.0000 C   0  0  0  0  0  0  0  0  0  0  0  0
   -2.3405    1.8121    0.0000 C   0  0  0  0  0  0  0  0  0  0  0  0
   -1.1914    0.8479    0.0000 C   0  0  0  0  0  0  0  0  0  0  0  0
    0.2181    1.3609    0.0000 C   0  0  0  0  0  0  0  0  0  0  0  0
    0.4786    2.8381    0.0000 C   0  0  0  0  0  0  0  0  0  0  0  0
   -0.6704    3.8023    0.0000 C   0  0  0  0  0  0  0  0  0  0  0  0
   -2.0800    3.2893    0.0000 C   0  0  0  0  0  0  0  0  0  0  0  0
   -4.8991    0.3349    0.0000 C   0  0  0  0  0  0  0  0  0  0  0  0
   -6.3086    0.8479    0.0000 C   0  0  0  0  0  0  0  0  0  0  0  0
   -6.5691    2.3251    0.0000 N   0  0  0  0  0  0  0  0  0  0  0  0
   -7.9786    2.8381    0.0000 C   0  0  0  0  0  0  0  0  0  0  0  0
   -9.1277    1.8739    0.0000 O   0  0  0  0  0  0  0  0  0  0  0  0
   -8.2391    4.3153    0.0000 N   0  0  0  0  0  0  0  0  0  0  0  0
   -9.6486    4.8284    0.0000 C   0  0  0  0  0  0  0  0  0  0  0  0
   -9.9091    6.3056    0.0000 C   0  0  0  0  0  0  0  0  0  0  0  0
  -11.3186    6.8186    0.0000 C   0  0  0  0  0  0  0  0  0  0  0  0
  -12.4677    5.8544    0.0000 C   0  0  0  0  0  0  0  0  0  0  0  0
  -12.2072    4.3772    0.0000 C   0  0  0  0  0  0  0  0  0  0  0  0
  -10.7977    3.8642    0.0000 C   0  0  0  0  0  0  0  0  0  0  0  0
  -10.5372    2.3870    0.0000 F   0  0  0  0  0  0  0  0  0  0  0  0
   -5.4200    3.2893    0.0000 C   0  0  0  0  0  0  0  0  0  0  0  0
   -4.0105    2.7762    0.0000 C   0  0  0  0  0  0  0  0  0  0  0  0
   -5.2500   -1.2990    0.0000 N   0  0  0  0  0  0  0  0  0  0  0  0
   -6.0000   -2.5981    0.0000 C   0  0  0  0  0  0  0  0  0  0  0  0
  1  2  2  0
  2  3  1  0
  3  4  1  0
  2  5  1  0
  5  6  2  0
  6  7  1  0
  7  8  2  0
  8  9  1  0
  9 10  1  0
 10 11  1  0
 11 12  2  0
 12 13  1  0
 13 14  2  0
 14 15  1  0
 15 16  2  0
 10 17  1  0
 17 18  1  0
 18 19  1  0
 19 20  1  0
 20 21  2  0
 20 22  1  0
 22 23  1  0
 23 24  2  0
 24 25  1  0
 25 26  2  0
 26 27  1  0
 27 28  2  0
 28 29  1  0
 19 30  1  0
 30 31  1  0
  8 32  1  0
 32 33  2  0
 33  5  1  0
 31 10  1  0
 16 11  1  0
 28 23  1  0
M  END
>  <molecule_chembl_id>  (1090) 
CHEMBL3977741

>  <canonical_smiles>  (1090) 
O=C(NO)c1cnc(NC2(c3ccccc3)CCN(C(=O)Nc3ccccc3F)CC2)nc1

>  <pchembl_value_mean>  (1090) 
7.57

>  <document_chembl_id>  (1090) 
CHEMBL3886590

$$$$

     RDKit          2D

 38 41  0  0  0  0  0  0  0  0999 V2000
   14.7990   -8.5442    0.0000 C   0  0  0  0  0  0  0  0  0  0  0  0
   13.2990   -8.5442    0.0000 C   0  0  0  0  0  0  0  0  0  0  0  0
   12.5490   -7.2452    0.0000 C   0  0  0  0  0  0  0  0  0  0  0  0
   13.2990   -5.9462    0.0000 O   0  0  0  0  0  0  0  0  0  0  0  0
   11.0490   -7.2452    0.0000 C   0  0  0  0  0  0  0  0  0  0  0  0
   10.2990   -5.9462    0.0000 C   0  0  0  0  0  0  0  0  0  0  0  0
    8.7990   -5.9462    0.0000 C   0  0  0  0  0  0  0  0  0  0  0  0
    8.0490   -4.6471    0.0000 C   0  0  0  0  0  0  0  0  0  0  0  0
    6.5490   -4.6471    0.0000 C   0  0  0  0  0  0  0  0  0  0  0  0
    5.7990   -3.3481    0.0000 C   0  0  0  0  0  0  0  0  0  0  0  0
    4.2990   -3.3481    0.0000 N   0  0  0  0  0  0  0  0  0  0  0  0
    3.5490   -2.0490    0.0000 C   0  0  0  0  0  0  0  0  0  0  0  0
    4.2990   -0.7500    0.0000 O   0  0  0  0  0  0  0  0  0  0  0  0
    2.0490   -2.0490    0.0000 C   0  0  0  0  0  0  0  0  0  0  0  0
    0.7500   -2.7990    0.0000 C   0  0  0  0  0  0  0  0  0  0  0  0
    0.7500   -1.2990    0.0000 C   0  0  0  0  0  0  0  0  0  0  0  0
    1.5000    0.0000    0.0000 C   0  0  0  0  0  0  0  0  0  0  0  0
    0.7500    1.2990    0.0000 C   0  0  0  0  0  0  0  0  0  0  0  0
   -0.7500    1.2990    0.0000 N   0  0  0  0  0  0  0  0  0  0  0  0
   -1.5000    2.5981    0.0000 C   0  0  0  0  0  0  0  0  0  0  0  0
   -0.7500    3.8971    0.0000 C   0  0  0  0  0  0  0  0  0  0  0  0
   -1.5000    0.0000    0.0000 C   0  0  0  0  0  0  0  0  0  0  0  0
   -0.7500   -1.2990    0.0000 C   0  0  0  0  0  0  0  0  0  0  0  0
    6.5490   -2.0490    0.0000 C   0  0  0  0  0  0  0  0  0  0  0  0
    5.9389   -0.6787    0.0000 N   0  0  0  0  0  0  0  0  0  0  0  0
    7.0537    0.3250    0.0000 C   0  0  0  0  0  0  0  0  0  0  0  0
    8.3527   -0.4250    0.0000 C   0  0  0  0  0  0  0  0  0  0  0  0
    9.7230    0.1851    0.0000 C   0  0  0  0  0  0  0  0  0  0  0  0
   10.9365   -0.6966    0.0000 C   0  0  0  0  0  0  0  0  0  0  0  0
   12.3069   -0.0865    0.0000 C   0  0  0  0  0  0  0  0  0  0  0  0
   13.5204   -0.9682    0.0000 F   0  0  0  0  0  0  0  0  0  0  0  0
   12.4636    1.4053    0.0000 C   0  0  0  0  0  0  0  0  0  0  0  0
   13.8340    2.0154    0.0000 F   0  0  0  0  0  0  0  0  0  0  0  0
   11.2501    2.2870    0.0000 C   0  0  0  0  0  0  0  0  0  0  0  0
    9.8798    1.6769    0.0000 C   0  0  0  0  0  0  0  0  0  0  0  0
    8.6663    2.5585    0.0000 O   0  0  0  0  0  0  0  0  0  0  0  0
    8.8231    4.0503    0.0000 C   0  0  0  0  0  0  0  0  0  0  0  0
    8.0408   -1.8922    0.0000 N   0  0  0  0  0  0  0  0  0  0  0  0
  1  2  1  0
  2  3  1  0
  3  4  2  0
  3  5  1  0
  5  6  1  0
  6  7  1  0
  7  8  1  0
  8  9  1  0
  9 10  1  0
 10 11  1  0
 11 12  1  0
 12 13  2  0
 12 14  1  0
 14 15  1  0
 15 16  1  0
 16 17  1  0
 17 18  1  0
 18 19  1  0
 19 20  1  0
 20 21  1  0
 19 22  1  0
 22 23  1  0
 10 24  1  0
 24 25  2  0
 25 26  1  0
 26 27  2  0
 27 28  1  0
 28 29  2  0
 29 30  1  0
 30 31  1  0
 30 32  2  0
 32 33  1  0
 32 34  1  0
 34 35  2  0
 35 36  1  0
 36 37  1  0
 27 38  1  0
 16 14  1  0
 38 24  1  0
 23 16  1  0
 35 28  1  0
M  END
>  <molecule_chembl_id>  (1091) 
CHEMBL4793832

>  <canonical_smiles>  (1091) 
CCC(=O)CCCCCC(NC(=O)C1CC12CCN(CC)CC2)c1ncc(-c2cc(F)c(F)cc2OC)[nH]1

>  <pchembl_value_mean>  (1091) 
7.57

>  <document_chembl_id>  (1091) 
CHEMBL4680369

$$$$

     RDKit          2D

 35 38  0  0  0  0  0  0  0  0999 V2000
   12.7500   -9.0933    0.0000 C   0  0  0  0  0  0  0  0  0  0  0  0
   12.0000   -7.7942    0.0000 C   0  0  0  0  0  0  0  0  0  0  0  0
   10.5000   -7.7942    0.0000 C   0  0  0  0  0  0  0  0  0  0  0  0
    9.7500   -9.0933    0.0000 O   0  0  0  0  0  0  0  0  0  0  0  0
    9.7500   -6.4952    0.0000 C   0  0  0  0  0  0  0  0  0  0  0  0
    8.2500   -6.4952    0.0000 C   0  0  0  0  0  0  0  0  0  0  0  0
    7.5000   -5.1962    0.0000 C   0  0  0  0  0  0  0  0  0  0  0  0
    6.0000   -5.1962    0.0000 C   0  0  0  0  0  0  0  0  0  0  0  0
    5.2500   -3.8971    0.0000 C   0  0  0  0  0  0  0  0  0  0  0  0
    3.7500   -3.8971    0.0000 C   0  0  0  0  0  0  0  0  0  0  0  0
    3.0000   -2.5981    0.0000 N   0  0  0  0  0  0  0  0  0  0  0  0
    1.5000   -2.5981    0.0000 C   0  0  0  0  0  0  0  0  0  0  0  0
    0.7403   -3.3846    0.0000 O   0  0  0  0  0  0  0  0  0  0  0  0
    0.7500   -1.2990    0.0000 C   0  0  0  0  0  0  0  0  0  0  0  0
    1.5000    0.0000    0.0000 C   0  0  0  0  0  0  0  0  0  0  0  0
    0.7500    1.2990    0.0000 C   0  0  0  0  0  0  0  0  0  0  0  0
   -0.7500    1.2990    0.0000 N   0  0  0  0  0  0  0  0  0  0  0  0
   -1.5000    0.0000    0.0000 C   0  0  0  0  0  0  0  0  0  0  0  0
   -0.7500   -1.2990    0.0000 C   0  0  0  0  0  0  0  0  0  0  0  0
   -0.3828    0.5621    0.0000 C   0  0  0  0  0  0  0  0  0  0  0  0
    0.2954   -0.6125    0.0000 C   0  0  0  0  0  0  0  0  0  0  0  0
    3.0000   -5.1962    0.0000 C   0  0  0  0  0  0  0  0  0  0  0  0
    3.6101   -6.5665    0.0000 N   0  0  0  0  0  0  0  0  0  0  0  0
    2.4954   -7.5702    0.0000 C   0  0  0  0  0  0  0  0  0  0  0  0
    2.6522   -9.0619    0.0000 C   0  0  0  0  0  0  0  0  0  0  0  0
    1.4387   -9.9436    0.0000 C   0  0  0  0  0  0  0  0  0  0  0  0
    1.5954  -11.4354    0.0000 C   0  0  0  0  0  0  0  0  0  0  0  0
    2.9658  -12.0455    0.0000 C   0  0  0  0  0  0  0  0  0  0  0  0
    3.1226  -13.5373    0.0000 F   0  0  0  0  0  0  0  0  0  0  0  0
    4.1793  -11.1638    0.0000 C   0  0  0  0  0  0  0  0  0  0  0  0
    4.0225   -9.6721    0.0000 C   0  0  0  0  0  0  0  0  0  0  0  0
    1.1963   -6.8202    0.0000 N   0  0  0  0  0  0  0  0  0  0  0  0
    1.5082   -5.3529    0.0000 C   0  0  0  0  0  0  0  0  0  0  0  0
    0.5045   -4.2382    0.0000 C   0  0  0  0  0  0  0  0  0  0  0  0
   -0.4992   -3.1235    0.0000 N   0  0  0  0  0  0  0  0  0  0  0  0
  1  2  1  0
  2  3  1  0
  3  4  2  0
  3  5  1  0
  5  6  1  0
  6  7  1  0
  7  8  1  0
  8  9  1  0
  9 10  1  0
 10 11  1  0
 11 12  1  0
 12 13  2  0
 12 14  1  0
 14 15  1  0
 15 16  1  0
 16 17  1  0
 17 18  1  0
 18 19  1  0
 17 20  1  0
 20 21  1  0
 10 22  1  0
 22 23  1  0
 23 24  1  0
 24 25  1  0
 25 26  2  0
 26 27  1  0
 27 28  2  0
 28 29  1  0
 28 30  1  0
 30 31  2  0
 24 32  2  0
 32 33  1  0
 33 34  1  0
 34 35  3  0
 19 14  1  0
 33 22  2  0
 21 14  1  0
 31 25  1  0
M  END
>  <molecule_chembl_id>  (1092) 
CHEMBL4741084

>  <canonical_smiles>  (1092) 
CCC(=O)CCCCCC(NC(=O)C12CCN(CC1)CC2)c1[nH]c(-c2ccc(F)cc2)nc1C#N

>  <pchembl_value_mean>  (1092) 
7.57

>  <document_chembl_id>  (1092) 
CHEMBL4665726

$$$$

     RDKit          2D

 29 30  0  0  0  0  0  0  0  0999 V2000
    3.0000    0.0000    0.0000 C   0  0  0  0  0  0  0  0  0  0  0  0
    1.5000    0.0000    0.0000 C   0  0  0  0  0  0  0  0  0  0  0  0
    0.7500   -1.2990    0.0000 C   0  0  0  0  0  0  0  0  0  0  0  0
   -0.7500   -1.2990    0.0000 C   0  0  0  0  0  0  0  0  0  0  0  0
   -1.5000    0.0000    0.0000 C   0  0  0  0  0  0  0  0  0  0  0  0
   -0.7500    1.2990    0.0000 C   0  0  0  0  0  0  0  0  0  0  0  0
   -1.5000    2.5981    0.0000 N   0  0  0  0  0  0  0  0  0  0  0  0
   -0.7500    3.8971    0.0000 C   0  0  0  0  0  0  0  0  0  0  0  0
    0.7500    3.8971    0.0000 O   0  0  0  0  0  0  0  0  0  0  0  0
   -1.5000    5.1962    0.0000 C   0  0  0  0  0  0  0  0  0  0  0  0
   -0.7500    6.4952    0.0000 C   0  0  0  0  0  0  0  0  0  0  0  0
   -1.5000    7.7942    0.0000 C   0  0  0  0  0  0  0  0  0  0  0  0
   -0.7500    9.0933    0.0000 C   0  0  0  0  0  0  0  0  0  0  0  0
   -1.5000   10.3923    0.0000 C   0  0  0  0  0  0  0  0  0  0  0  0
   -0.7500   11.6913    0.0000 C   0  0  0  0  0  0  0  0  0  0  0  0
   -1.5000   12.9904    0.0000 C   0  0  0  0  0  0  0  0  0  0  0  0
   -3.0000   12.9904    0.0000 O   0  0  0  0  0  0  0  0  0  0  0  0
   -0.7500   14.2894    0.0000 N   0  0  0  0  0  0  0  0  0  0  0  0
   -1.5000   15.5885    0.0000 O   0  0  0  0  0  0  0  0  0  0  0  0
   -3.0000    5.1962    0.0000 N   0  0  0  0  0  0  0  0  0  0  0  0
   -3.7500    6.4952    0.0000 C   0  0  0  0  0  0  0  0  0  0  0  0
   -3.0000    7.7942    0.0000 O   0  0  0  0  0  0  0  0  0  0  0  0
   -5.2500    6.4952    0.0000 C   0  0  0  0  0  0  0  0  0  0  0  0
   -6.1317    5.2817    0.0000 C   0  0  0  0  0  0  0  0  0  0  0  0
   -7.5583    5.7452    0.0000 C   0  0  0  0  0  0  0  0  0  0  0  0
   -7.5583    7.2452    0.0000 C   0  0  0  0  0  0  0  0  0  0  0  0
   -8.7718    8.1269    0.0000 O   0  0  0  0  0  0  0  0  0  0  0  0
   -6.1317    7.7087    0.0000 N   0  0  0  0  0  0  0  0  0  0  0  0
    0.7500    1.2990    0.0000 C   0  0  0  0  0  0  0  0  0  0  0  0
  1  2  1  0
  2  3  2  0
  3  4  1  0
  4  5  2  0
  5  6  1  0
  6  7  1  0
  7  8  1  0
  8  9  2  0
  8 10  1  0
 10 11  1  0
 11 12  1  0
 12 13  1  0
 13 14  1  0
 14 15  1  0
 15 16  1  0
 16 17  2  0
 16 18  1  0
 18 19  1  0
 10 20  1  0
 20 21  1  0
 21 22  2  0
 21 23  1  0
 23 24  1  0
 24 25  1  0
 25 26  1  0
 26 27  2  0
 26 28  1  0
  6 29  2  0
 29  2  1  0
 28 23  1  0
M  END
>  <molecule_chembl_id>  (1093) 
CHEMBL3098604

>  <canonical_smiles>  (1093) 
Cc1cccc(NC(=O)C(CCCCCC(=O)NO)NC(=O)C2CCC(=O)N2)c1

>  <pchembl_value_mean>  (1093) 
7.57

>  <document_chembl_id>  (1093) 
CHEMBL3098008

$$$$

     RDKit          2D

 32 34  0  0  0  0  0  0  0  0999 V2000
   -4.2606  -14.8714    0.0000 C   0  0  0  0  0  0  0  0  0  0  0  0
   -4.1038  -13.3796    0.0000 C   0  0  0  0  0  0  0  0  0  0  0  0
   -2.7335  -12.7695    0.0000 C   0  0  0  0  0  0  0  0  0  0  0  0
   -1.5200  -13.6512    0.0000 O   0  0  0  0  0  0  0  0  0  0  0  0
   -2.5767  -11.2778    0.0000 C   0  0  0  0  0  0  0  0  0  0  0  0
   -1.2064  -10.6676    0.0000 C   0  0  0  0  0  0  0  0  0  0  0  0
   -1.0496   -9.1759    0.0000 C   0  0  0  0  0  0  0  0  0  0  0  0
    0.3207   -8.5658    0.0000 C   0  0  0  0  0  0  0  0  0  0  0  0
    0.4775   -7.0740    0.0000 C   0  0  0  0  0  0  0  0  0  0  0  0
    1.8478   -6.4639    0.0000 C   0  0  0  0  0  0  0  0  0  0  0  0
    3.0613   -7.3456    0.0000 N   0  0  0  0  0  0  0  0  0  0  0  0
    2.9046   -8.8373    0.0000 C   0  0  0  0  0  0  0  0  0  0  0  0
    1.5342   -9.4474    0.0000 O   0  0  0  0  0  0  0  0  0  0  0  0
    4.1181   -9.7190    0.0000 C   0  0  0  0  0  0  0  0  0  0  0  0
    5.5447   -9.2555    0.0000 C   0  0  0  0  0  0  0  0  0  0  0  0
    6.4263  -10.4690    0.0000 N   0  0  0  0  0  0  0  0  0  0  0  0
    5.5447  -11.6825    0.0000 C   0  0  0  0  0  0  0  0  0  0  0  0
    4.1181  -11.2190    0.0000 S   0  0  0  0  0  0  0  0  0  0  0  0
    2.0046   -4.9721    0.0000 C   0  0  0  0  0  0  0  0  0  0  0  0
    0.8899   -3.9684    0.0000 N   0  0  0  0  0  0  0  0  0  0  0  0
    1.5000   -2.5981    0.0000 C   0  0  0  0  0  0  0  0  0  0  0  0
    0.7500   -1.2990    0.0000 C   0  0  0  0  0  0  0  0  0  0  0  0
    1.5000    0.0000    0.0000 C   0  0  0  0  0  0  0  0  0  0  0  0
    0.7500    1.2990    0.0000 C   0  0  0  0  0  0  0  0  0  0  0  0
   -0.7500    1.2990    0.0000 C   0  0  0  0  0  0  0  0  0  0  0  0
   -1.5000    0.0000    0.0000 C   0  0  0  0  0  0  0  0  0  0  0  0
   -0.7500   -1.2990    0.0000 C   0  0  0  0  0  0  0  0  0  0  0  0
    2.9918   -2.7549    0.0000 N   0  0  0  0  0  0  0  0  0  0  0  0
    3.3037   -4.2221    0.0000 C   0  0  0  0  0  0  0  0  0  0  0  0
    4.6740   -4.8322    0.0000 C   0  0  0  0  0  0  0  0  0  0  0  0
    5.8875   -3.9505    0.0000 N   0  0  0  0  0  0  0  0  0  0  0  0
    4.8308   -6.3240    0.0000 O   0  0  0  0  0  0  0  0  0  0  0  0
  1  2  1  0
  2  3  1  0
  3  4  2  0
  3  5  1  0
  5  6  1  0
  6  7  1  0
  7  8  1  0
  8  9  1  0
  9 10  1  0
 10 11  1  0
 11 12  1  0
 12 13  2  0
 12 14  1  0
 14 15  2  0
 15 16  1  0
 16 17  2  0
 17 18  1  0
 10 19  1  0
 19 20  1  0
 20 21  1  0
 21 22  1  0
 22 23  2  0
 23 24  1  0
 24 25  2  0
 25 26  1  0
 26 27  2  0
 21 28  2  0
 28 29  1  0
 29 30  1  0
 30 31  1  0
 30 32  2  0
 18 14  1  0
 29 19  2  0
 27 22  1  0
M  END
>  <molecule_chembl_id>  (1094) 
CHEMBL4742036

>  <canonical_smiles>  (1094) 
CCC(=O)CCCCCC(NC(=O)c1cncs1)c1[nH]c(-c2ccccc2)nc1C(N)=O

>  <pchembl_value_mean>  (1094) 
7.57

>  <document_chembl_id>  (1094) 
CHEMBL4665726

$$$$

     RDKit          2D

 24 25  0  0  0  0  0  0  0  0999 V2000
    3.0000    0.0000    0.0000 N   0  0  0  0  0  0  0  0  0  0  0  0
    1.5000    0.0000    0.0000 C   0  0  0  0  0  0  0  0  0  0  0  0
    0.7500   -1.2990    0.0000 C   0  0  0  0  0  0  0  0  0  0  0  0
   -0.7500   -1.2990    0.0000 C   0  0  0  0  0  0  0  0  0  0  0  0
   -1.5000    0.0000    0.0000 C   0  0  0  0  0  0  0  0  0  0  0  0
   -0.7500    1.2990    0.0000 C   0  0  0  0  0  0  0  0  0  0  0  0
   -1.5000    2.5981    0.0000 C   0  0  0  0  0  0  0  0  0  0  0  0
   -2.9918    2.7549    0.0000 C   0  0  0  0  0  0  0  0  0  0  0  0
   -3.3037    4.2221    0.0000 S   0  0  0  0  0  0  0  0  0  0  0  0
   -2.0046    4.9721    0.0000 C   0  0  0  0  0  0  0  0  0  0  0  0
   -1.8478    6.4639    0.0000 N   0  0  0  0  0  0  0  0  0  0  0  0
   -0.4775    7.0740    0.0000 C   0  0  0  0  0  0  0  0  0  0  0  0
    0.7360    6.1923    0.0000 O   0  0  0  0  0  0  0  0  0  0  0  0
   -0.3207    8.5658    0.0000 C   0  0  0  0  0  0  0  0  0  0  0  0
    1.0496    9.1759    0.0000 C   0  0  0  0  0  0  0  0  0  0  0  0
    1.2064   10.6676    0.0000 C   0  0  0  0  0  0  0  0  0  0  0  0
    2.5767   11.2778    0.0000 C   0  0  0  0  0  0  0  0  0  0  0  0
    2.7335   12.7695    0.0000 C   0  0  0  0  0  0  0  0  0  0  0  0
    4.1038   13.3796    0.0000 C   0  0  0  0  0  0  0  0  0  0  0  0
    5.3174   12.4980    0.0000 O   0  0  0  0  0  0  0  0  0  0  0  0
    4.2606   14.8714    0.0000 N   0  0  0  0  0  0  0  0  0  0  0  0
    5.6309   15.4815    0.0000 O   0  0  0  0  0  0  0  0  0  0  0  0
   -0.8899    3.9684    0.0000 N   0  0  0  0  0  0  0  0  0  0  0  0
    0.7500    1.2990    0.0000 C   0  0  0  0  0  0  0  0  0  0  0  0
  1  2  1  0
  2  3  2  0
  3  4  1  0
  4  5  2  0
  5  6  1  0
  6  7  1  0
  7  8  2  0
  8  9  1  0
  9 10  1  0
 10 11  1  0
 11 12  1  0
 12 13  2  0
 12 14  1  0
 14 15  1  0
 15 16  1  0
 16 17  1  0
 17 18  1  0
 18 19  1  0
 19 20  2  0
 19 21  1  0
 21 22  1  0
 10 23  2  0
  6 24  2  0
 24  2  1  0
 23  7  1  0
M  END
>  <molecule_chembl_id>  (1095) 
CHEMBL1630208

>  <canonical_smiles>  (1095) 
Nc1cccc(-c2csc(NC(=O)CCCCCC(=O)NO)n2)c1

>  <pchembl_value_mean>  (1095) 
7.58

>  <document_chembl_id>  (1095) 
CHEMBL4400533

$$$$

     RDKit          2D

 28 30  0  0  0  0  0  0  0  0999 V2000
  -12.9904   -9.6073    0.0000 C   0  0  0  0  0  0  0  0  0  0  0  0
  -11.6913  -10.3573    0.0000 C   0  0  0  0  0  0  0  0  0  0  0  0
  -10.3923   -9.6073    0.0000 C   0  0  0  0  0  0  0  0  0  0  0  0
   -9.0933  -10.3573    0.0000 N   0  0  0  0  0  0  0  0  0  0  0  0
   -7.7942   -9.6073    0.0000 N   0  0  0  0  0  0  0  0  0  0  0  0
   -6.4952  -10.3573    0.0000 C   0  0  0  0  0  0  0  0  0  0  0  0
   -6.4952  -11.8573    0.0000 O   0  0  0  0  0  0  0  0  0  0  0  0
   -5.1962   -9.6073    0.0000 C   0  0  0  0  0  0  0  0  0  0  0  0
   -5.1962   -8.1073    0.0000 C   0  0  0  0  0  0  0  0  0  0  0  0
   -3.8971   -7.3573    0.0000 C   0  0  0  0  0  0  0  0  0  0  0  0
   -2.5981   -8.1073    0.0000 C   0  0  0  0  0  0  0  0  0  0  0  0
   -1.2990   -7.3573    0.0000 C   0  0  0  0  0  0  0  0  0  0  0  0
   -1.2990   -5.8573    0.0000 N   0  0  0  0  0  0  0  0  0  0  0  0
   -0.0000   -5.1073    0.0000 C   0  0  0  0  0  0  0  0  0  0  0  0
    1.2990   -5.8573    0.0000 O   0  0  0  0  0  0  0  0  0  0  0  0
   -0.0000   -3.6073    0.0000 C   0  0  0  0  0  0  0  0  0  0  0  0
    1.2135   -2.7256    0.0000 C   0  0  0  0  0  0  0  0  0  0  0  0
    0.7500   -1.2990    0.0000 C   0  0  0  0  0  0  0  0  0  0  0  0
    1.5000    0.0000    0.0000 C   0  0  0  0  0  0  0  0  0  0  0  0
    0.7500    1.2990    0.0000 C   0  0  0  0  0  0  0  0  0  0  0  0
    1.5000    2.5981    0.0000 O   0  0  0  0  0  0  0  0  0  0  0  0
    3.0000    2.5981    0.0000 C   0  0  0  0  0  0  0  0  0  0  0  0
   -0.7500    1.2990    0.0000 C   0  0  0  0  0  0  0  0  0  0  0  0
   -1.5000    0.0000    0.0000 C   0  0  0  0  0  0  0  0  0  0  0  0
   -0.7500   -1.2990    0.0000 C   0  0  0  0  0  0  0  0  0  0  0  0
   -1.2135   -2.7256    0.0000 O   0  0  0  0  0  0  0  0  0  0  0  0
   -2.5981   -9.6073    0.0000 C   0  0  0  0  0  0  0  0  0  0  0  0
   -3.8971  -10.3573    0.0000 C   0  0  0  0  0  0  0  0  0  0  0  0
  1  2  1  0
  2  3  1  0
  3  4  1  0
  4  5  1  0
  5  6  1  0
  6  7  2  0
  6  8  1  0
  8  9  2  0
  9 10  1  0
 10 11  2  0
 11 12  1  0
 12 13  1  0
 13 14  1  0
 14 15  2  0
 14 16  1  0
 16 17  2  0
 17 18  1  0
 18 19  2  0
 19 20  1  0
 20 21  1  0
 21 22  1  0
 20 23  2  0
 23 24  1  0
 24 25  2  0
 25 26  1  0
 11 27  1  0
 27 28  2  0
 28  8  1  0
 26 16  1  0
 25 18  1  0
M  END
>  <molecule_chembl_id>  (1096) 
CHEMBL5093099

>  <canonical_smiles>  (1096) 
CCCNNC(=O)c1ccc(CNC(=O)c2cc3cc(OC)ccc3o2)cc1

>  <pchembl_value_mean>  (1096) 
7.58

>  <document_chembl_id>  (1096) 
CHEMBL5042504

$$$$

     RDKit          2D

 37 41  0  0  0  0  0  0  0  0999 V2000
   -1.3700  -16.2174    0.0000 N   0  0  0  0  0  0  0  0  0  0  0  0
   -2.7404  -16.8275    0.0000 C   0  0  0  0  0  0  0  0  0  0  0  0
   -2.8972  -18.3193    0.0000 C   0  0  0  0  0  0  0  0  0  0  0  0
   -4.2675  -18.9294    0.0000 C   0  0  0  0  0  0  0  0  0  0  0  0
   -5.4810  -18.0477    0.0000 C   0  0  0  0  0  0  0  0  0  0  0  0
   -5.3242  -16.5560    0.0000 C   0  0  0  0  0  0  0  0  0  0  0  0
   -3.9539  -15.9458    0.0000 C   0  0  0  0  0  0  0  0  0  0  0  0
   -3.7971  -14.4541    0.0000 N   0  0  0  0  0  0  0  0  0  0  0  0
   -2.4268  -13.8440    0.0000 C   0  0  0  0  0  0  0  0  0  0  0  0
   -1.2133  -14.7256    0.0000 O   0  0  0  0  0  0  0  0  0  0  0  0
   -2.2700  -12.3522    0.0000 C   0  0  0  0  0  0  0  0  0  0  0  0
   -0.8997  -11.7421    0.0000 C   0  0  0  0  0  0  0  0  0  0  0  0
   -0.7429  -10.2503    0.0000 C   0  0  0  0  0  0  0  0  0  0  0  0
   -1.9564   -9.3686    0.0000 C   0  0  0  0  0  0  0  0  0  0  0  0
   -1.7996   -7.8768    0.0000 N   0  0  0  0  0  0  0  0  0  0  0  0
   -0.4293   -7.2667    0.0000 C   0  0  0  0  0  0  0  0  0  0  0  0
    0.7842   -8.1484    0.0000 O   0  0  0  0  0  0  0  0  0  0  0  0
   -0.2725   -5.7749    0.0000 C   0  0  0  0  0  0  0  0  0  0  0  0
    1.0978   -5.1648    0.0000 C   0  0  0  0  0  0  0  0  0  0  0  0
    1.2546   -3.6731    0.0000 N   0  0  0  0  0  0  0  0  0  0  0  0
    0.1399   -2.6694    0.0000 C   0  0  0  0  0  0  0  0  0  0  0  0
   -1.3273   -2.9812    0.0000 O   0  0  0  0  0  0  0  0  0  0  0  0
    0.7500   -1.2990    0.0000 C   0  0  0  0  0  0  0  0  0  0  0  0
    1.5000    0.0000    0.0000 O   0  0  0  0  0  0  0  0  0  0  0  0
    0.7500    1.2990    0.0000 C   0  0  0  0  0  0  0  0  0  0  0  0
   -0.7500    1.2990    0.0000 C   0  0  0  0  0  0  0  0  0  0  0  0
   -1.5000    0.0000    0.0000 C   0  0  0  0  0  0  0  0  0  0  0  0
   -0.7500   -1.2990    0.0000 O   0  0  0  0  0  0  0  0  0  0  0  0
    2.2418   -1.4558    0.0000 C   0  0  0  0  0  0  0  0  0  0  0  0
    3.3565   -0.4521    0.0000 C   0  0  0  0  0  0  0  0  0  0  0  0
    4.7831   -0.9157    0.0000 C   0  0  0  0  0  0  0  0  0  0  0  0
    5.8978    0.0880    0.0000 Br  0  0  0  0  0  0  0  0  0  0  0  0
    5.0950   -2.3829    0.0000 C   0  0  0  0  0  0  0  0  0  0  0  0
    3.9802   -3.3866    0.0000 C   0  0  0  0  0  0  0  0  0  0  0  0
    2.5537   -2.9231    0.0000 C   0  0  0  0  0  0  0  0  0  0  0  0
   -3.3267   -9.9787    0.0000 C   0  0  0  0  0  0  0  0  0  0  0  0
   -3.4835  -11.4705    0.0000 C   0  0  0  0  0  0  0  0  0  0  0  0
  1  2  1  0
  2  3  2  0
  3  4  1  0
  4  5  2  0
  5  6  1  0
  6  7  2  0
  7  8  1  0
  8  9  1  0
  9 10  2  0
  9 11  1  0
 11 12  2  0
 12 13  1  0
 13 14  2  0
 14 15  1  0
 15 16  1  0
 16 17  2  0
 16 18  1  0
 18 19  1  0
 19 20  1  0
 20 21  1  0
 21 22  2  0
 21 23  1  0
 23 24  1  0
 24 25  1  0
 25 26  1  0
 26 27  1  0
 27 28  1  0
 23 29  1  0
 29 30  2  0
 30 31  1  0
 31 32  1  0
 31 33  2  0
 33 34  1  0
 34 35  2  0
 14 36  1  0
 36 37  2  0
  7  2  1  0
 37 11  1  0
 35 20  1  0
 28 23  1  0
 35 29  1  0
M  END
>  <molecule_chembl_id>  (1097) 
CHEMBL4092753

>  <canonical_smiles>  (1097) 
Nc1ccccc1NC(=O)c1ccc(NC(=O)CCN2C(=O)C3(OCCCO3)c3cc(Br)ccc32)cc1

>  <pchembl_value_mean>  (1097) 
7.58

>  <document_chembl_id>  (1097) 
CHEMBL4033688

$$$$

     RDKit          2D

 30 33  0  0  0  0  0  0  0  0999 V2000
   -0.7500  -11.6913    0.0000 O   0  0  0  0  0  0  0  0  0  0  0  0
    0.7500  -11.6913    0.0000 C   0  0  0  0  0  0  0  0  0  0  0  0
    1.5000  -10.3923    0.0000 C   0  0  0  0  0  0  0  0  0  0  0  0
    0.7500   -9.0933    0.0000 C   0  0  0  0  0  0  0  0  0  0  0  0
    1.5000   -7.7942    0.0000 C   0  0  0  0  0  0  0  0  0  0  0  0
    0.7500   -6.4952    0.0000 C   0  0  0  0  0  0  0  0  0  0  0  0
    1.5000   -5.1962    0.0000 C   0  0  0  0  0  0  0  0  0  0  0  0
    0.7500   -3.8971    0.0000 N   0  0  0  0  0  0  0  0  0  0  0  0
    1.5000   -2.5981    0.0000 C   0  0  0  0  0  0  0  0  0  0  0  0
    3.0000   -2.5981    0.0000 O   0  0  0  0  0  0  0  0  0  0  0  0
    0.7500   -1.2990    0.0000 C   0  0  0  0  0  0  0  0  0  0  0  0
    1.5000    0.0000    0.0000 C   0  0  0  0  0  0  0  0  0  0  0  0
    0.7500    1.2990    0.0000 C   0  0  0  0  0  0  0  0  0  0  0  0
   -0.7500    1.2990    0.0000 C   0  0  0  0  0  0  0  0  0  0  0  0
   -1.5000    0.0000    0.0000 C   0  0  0  0  0  0  0  0  0  0  0  0
   -3.0000    0.0000    0.0000 C   0  0  0  0  0  0  0  0  0  0  0  0
   -3.7500    1.2990    0.0000 N   0  0  0  0  0  0  0  0  0  0  0  0
   -3.0000    2.5981    0.0000 C   0  0  0  0  0  0  0  0  0  0  0  0
   -3.7500    3.8971    0.0000 C   0  0  0  0  0  0  0  0  0  0  0  0
   -5.2500    3.8971    0.0000 O   0  0  0  0  0  0  0  0  0  0  0  0
   -6.0000    2.5981    0.0000 C   0  0  0  0  0  0  0  0  0  0  0  0
   -5.2500    1.2990    0.0000 C   0  0  0  0  0  0  0  0  0  0  0  0
   -3.7500   -1.2990    0.0000 C   0  0  0  0  0  0  0  0  0  0  0  0
   -3.0000   -2.5981    0.0000 C   0  0  0  0  0  0  0  0  0  0  0  0
   -1.5000   -2.5981    0.0000 C   0  0  0  0  0  0  0  0  0  0  0  0
   -0.7500   -1.2990    0.0000 C   0  0  0  0  0  0  0  0  0  0  0  0
   -0.7500   -3.8971    0.0000 C   0  0  0  0  0  0  0  0  0  0  0  0
   -1.5000   -5.1962    0.0000 O   0  0  0  0  0  0  0  0  0  0  0  0
    1.5000  -12.9904    0.0000 N   0  0  0  0  0  0  0  0  0  0  0  0
    0.7500  -14.2894    0.0000 O   0  0  0  0  0  0  0  0  0  0  0  0
  1  2  2  0
  2  3  1  0
  3  4  1  0
  4  5  1  0
  5  6  1  0
  6  7  1  0
  7  8  1  0
  8  9  1  0
  9 10  2  0
  9 11  1  0
 11 12  1  0
 12 13  2  0
 13 14  1  0
 14 15  2  0
 15 16  1  0
 16 17  1  0
 17 18  1  0
 18 19  1  0
 19 20  1  0
 20 21  1  0
 21 22  1  0
 16 23  2  0
 23 24  1  0
 24 25  2  0
 25 26  1  0
 25 27  1  0
 27 28  2  0
  2 29  1  0
 29 30  1  0
 27  8  1  0
 26 11  2  0
 26 15  1  0
 22 17  1  0
M  END
>  <molecule_chembl_id>  (1098) 
CHEMBL4160632

>  <canonical_smiles>  (1098) 
O=C(CCCCCN1C(=O)c2cccc3c(N4CCOCC4)ccc(c23)C1=O)NO

>  <pchembl_value_mean>  (1098) 
7.59

>  <document_chembl_id>  (1098) 
CHEMBL4138147

$$$$

     RDKit          2D

 28 30  0  0  0  0  0  0  0  0999 V2000
  -10.7086   -9.9084    0.0000 O   0  0  0  0  0  0  0  0  0  0  0  0
   -9.5939  -10.9121    0.0000 C   0  0  0  0  0  0  0  0  0  0  0  0
   -8.1673  -10.4486    0.0000 C   0  0  0  0  0  0  0  0  0  0  0  0
   -7.8555   -8.9814    0.0000 C   0  0  0  0  0  0  0  0  0  0  0  0
   -6.4289   -8.5179    0.0000 C   0  0  0  0  0  0  0  0  0  0  0  0
   -6.1170   -7.0506    0.0000 C   0  0  0  0  0  0  0  0  0  0  0  0
   -4.6904   -6.5871    0.0000 C   0  0  0  0  0  0  0  0  0  0  0  0
   -4.3786   -5.1199    0.0000 C   0  0  0  0  0  0  0  0  0  0  0  0
   -2.9520   -4.6564    0.0000 C   0  0  0  0  0  0  0  0  0  0  0  0
   -1.8373   -5.6601    0.0000 O   0  0  0  0  0  0  0  0  0  0  0  0
   -2.6401   -3.1891    0.0000 N   0  0  0  0  0  0  0  0  0  0  0  0
   -1.2135   -2.7256    0.0000 C   0  0  0  0  0  0  0  0  0  0  0  0
   -0.0000   -3.6073    0.0000 N   0  0  0  0  0  0  0  0  0  0  0  0
    1.2135   -2.7256    0.0000 N   0  0  0  0  0  0  0  0  0  0  0  0
    0.7500   -1.2990    0.0000 C   0  0  0  0  0  0  0  0  0  0  0  0
    1.5000    0.0000    0.0000 C   0  0  0  0  0  0  0  0  0  0  0  0
    0.7500    1.2990    0.0000 C   0  0  0  0  0  0  0  0  0  0  0  0
    1.5000    2.5981    0.0000 C   0  0  0  0  0  0  0  0  0  0  0  0
    3.0000    2.5981    0.0000 C   0  0  0  0  0  0  0  0  0  0  0  0
    3.7500    3.8971    0.0000 C   0  0  0  0  0  0  0  0  0  0  0  0
    3.0000    5.1962    0.0000 N   0  0  0  0  0  0  0  0  0  0  0  0
    1.5000    5.1962    0.0000 C   0  0  0  0  0  0  0  0  0  0  0  0
    0.7500    3.8971    0.0000 C   0  0  0  0  0  0  0  0  0  0  0  0
   -0.7500    1.2990    0.0000 C   0  0  0  0  0  0  0  0  0  0  0  0
   -1.5000    0.0000    0.0000 C   0  0  0  0  0  0  0  0  0  0  0  0
   -0.7500   -1.2990    0.0000 C   0  0  0  0  0  0  0  0  0  0  0  0
   -9.9058  -12.3794    0.0000 N   0  0  0  0  0  0  0  0  0  0  0  0
  -11.3324  -12.8429    0.0000 O   0  0  0  0  0  0  0  0  0  0  0  0
  1  2  2  0
  2  3  1  0
  3  4  1  0
  4  5  1  0
  5  6  1  0
  6  7  1  0
  7  8  1  0
  8  9  1  0
  9 10  2  0
  9 11  1  0
 11 12  1  0
 12 13  2  0
 13 14  1  0
 14 15  1  0
 15 16  2  0
 16 17  1  0
 17 18  1  0
 18 19  2  0
 19 20  1  0
 20 21  2  0
 21 22  1  0
 22 23  2  0
 17 24  2  0
 24 25  1  0
 25 26  2  0
  2 27  1  0
 27 28  1  0
 26 12  1  0
 26 15  1  0
 23 18  1  0
M  END
>  <molecule_chembl_id>  (1099) 
CHEMBL4792025

>  <canonical_smiles>  (1099) 
O=C(CCCCCCC(=O)Nc1n[nH]c2cc(-c3ccncc3)ccc12)NO

>  <pchembl_value_mean>  (1099) 
7.59

>  <document_chembl_id>  (1099) 
CHEMBL4765277

$$$$

     RDKit          2D

 37 40  0  0  0  0  0  0  0  0999 V2000
   14.7990   -8.5442    0.0000 C   0  0  0  0  0  0  0  0  0  0  0  0
   13.2990   -8.5442    0.0000 C   0  0  0  0  0  0  0  0  0  0  0  0
   12.5490   -7.2452    0.0000 C   0  0  0  0  0  0  0  0  0  0  0  0
   13.2990   -5.9462    0.0000 O   0  0  0  0  0  0  0  0  0  0  0  0
   11.0490   -7.2452    0.0000 C   0  0  0  0  0  0  0  0  0  0  0  0
   10.2990   -5.9462    0.0000 C   0  0  0  0  0  0  0  0  0  0  0  0
    8.7990   -5.9462    0.0000 C   0  0  0  0  0  0  0  0  0  0  0  0
    8.0490   -4.6471    0.0000 C   0  0  0  0  0  0  0  0  0  0  0  0
    6.5490   -4.6471    0.0000 C   0  0  0  0  0  0  0  0  0  0  0  0
    5.7990   -3.3481    0.0000 C   0  0  0  0  0  0  0  0  0  0  0  0
    4.2990   -3.3481    0.0000 N   0  0  0  0  0  0  0  0  0  0  0  0
    3.5490   -2.0490    0.0000 C   0  0  0  0  0  0  0  0  0  0  0  0
    4.2990   -0.7500    0.0000 O   0  0  0  0  0  0  0  0  0  0  0  0
    2.0490   -2.0490    0.0000 C   0  0  0  0  0  0  0  0  0  0  0  0
    0.7500   -2.7990    0.0000 C   0  0  0  0  0  0  0  0  0  0  0  0
    0.7500   -1.2990    0.0000 C   0  0  0  0  0  0  0  0  0  0  0  0
    1.5000    0.0000    0.0000 C   0  0  0  0  0  0  0  0  0  0  0  0
    0.7500    1.2990    0.0000 C   0  0  0  0  0  0  0  0  0  0  0  0
   -0.7500    1.2990    0.0000 N   0  0  0  0  0  0  0  0  0  0  0  0
   -1.5000    2.5981    0.0000 C   0  0  0  0  0  0  0  0  0  0  0  0
   -0.7500    3.8971    0.0000 C   0  0  0  0  0  0  0  0  0  0  0  0
   -1.5000    0.0000    0.0000 C   0  0  0  0  0  0  0  0  0  0  0  0
   -0.7500   -1.2990    0.0000 C   0  0  0  0  0  0  0  0  0  0  0  0
    6.5490   -2.0490    0.0000 C   0  0  0  0  0  0  0  0  0  0  0  0
    5.9389   -0.6787    0.0000 N   0  0  0  0  0  0  0  0  0  0  0  0
    7.0537    0.3250    0.0000 C   0  0  0  0  0  0  0  0  0  0  0  0
    8.3527   -0.4250    0.0000 C   0  0  0  0  0  0  0  0  0  0  0  0
    9.7230    0.1851    0.0000 C   0  0  0  0  0  0  0  0  0  0  0  0
   10.9365   -0.6966    0.0000 C   0  0  0  0  0  0  0  0  0  0  0  0
   12.3069   -0.0865    0.0000 C   0  0  0  0  0  0  0  0  0  0  0  0
   12.4636    1.4053    0.0000 C   0  0  0  0  0  0  0  0  0  0  0  0
   11.2501    2.2870    0.0000 C   0  0  0  0  0  0  0  0  0  0  0  0
   11.4069    3.7788    0.0000 F   0  0  0  0  0  0  0  0  0  0  0  0
    9.8798    1.6769    0.0000 C   0  0  0  0  0  0  0  0  0  0  0  0
    8.6663    2.5585    0.0000 O   0  0  0  0  0  0  0  0  0  0  0  0
    8.8231    4.0503    0.0000 C   0  0  0  0  0  0  0  0  0  0  0  0
    8.0408   -1.8922    0.0000 N   0  0  0  0  0  0  0  0  0  0  0  0
  1  2  1  0
  2  3  1  0
  3  4  2  0
  3  5  1  0
  5  6  1  0
  6  7  1  0
  7  8  1  0
  8  9  1  0
  9 10  1  0
 10 11  1  0
 11 12  1  0
 12 13  2  0
 12 14  1  0
 14 15  1  0
 15 16  1  0
 16 17  1  0
 17 18  1  0
 18 19  1  0
 19 20  1  0
 20 21  1  0
 19 22  1  0
 22 23  1  0
 10 24  1  0
 24 25  2  0
 25 26  1  0
 26 27  2  0
 27 28  1  0
 28 29  2  0
 29 30  1  0
 30 31  2  0
 31 32  1  0
 32 33  1  0
 32 34  2  0
 34 35  1  0
 35 36  1  0
 27 37  1  0
 16 14  1  0
 37 24  1  0
 23 16  1  0
 34 28  1  0
M  END
>  <molecule_chembl_id>  (1100) 
CHEMBL4751762

>  <canonical_smiles>  (1100) 
CCC(=O)CCCCCC(NC(=O)C1CC12CCN(CC)CC2)c1ncc(-c2cccc(F)c2OC)[nH]1

>  <pchembl_value_mean>  (1100) 
7.6

>  <document_chembl_id>  (1100) 
CHEMBL4680369

$$$$

     RDKit          2D

 23 25  0  0  0  0  0  0  0  0999 V2000
    6.0000    0.0000    0.0000 O   0  0  0  0  0  0  0  0  0  0  0  0
    5.2500   -1.2990    0.0000 C   0  0  0  0  0  0  0  0  0  0  0  0
    3.7500   -1.2990    0.0000 C   0  0  0  0  0  0  0  0  0  0  0  0
    3.0000    0.0000    0.0000 C   0  0  0  0  0  0  0  0  0  0  0  0
    1.5000    0.0000    0.0000 C   0  0  0  0  0  0  0  0  0  0  0  0
    0.7500   -1.2990    0.0000 C   0  0  0  0  0  0  0  0  0  0  0  0
   -0.7500   -1.2990    0.0000 C   0  0  0  0  0  0  0  0  0  0  0  0
   -1.5000    0.0000    0.0000 C   0  0  0  0  0  0  0  0  0  0  0  0
   -3.0000    0.0000    0.0000 C   0  0  0  0  0  0  0  0  0  0  0  0
   -3.7500    1.2990    0.0000 N   0  0  0  0  0  0  0  0  0  0  0  0
   -5.2500    1.2990    0.0000 C   0  0  0  0  0  0  0  0  0  0  0  0
   -6.5490    0.5490    0.0000 C   0  0  0  0  0  0  0  0  0  0  0  0
   -6.5490    2.0490    0.0000 C   0  0  0  0  0  0  0  0  0  0  0  0
   -7.2990    3.3481    0.0000 C   0  0  0  0  0  0  0  0  0  0  0  0
   -6.5490    4.6471    0.0000 C   0  0  0  0  0  0  0  0  0  0  0  0
   -7.2990    5.9462    0.0000 C   0  0  0  0  0  0  0  0  0  0  0  0
   -8.7990    5.9462    0.0000 C   0  0  0  0  0  0  0  0  0  0  0  0
   -9.5490    4.6471    0.0000 C   0  0  0  0  0  0  0  0  0  0  0  0
   -8.7990    3.3481    0.0000 C   0  0  0  0  0  0  0  0  0  0  0  0
   -0.7500    1.2990    0.0000 C   0  0  0  0  0  0  0  0  0  0  0  0
    0.7500    1.2990    0.0000 C   0  0  0  0  0  0  0  0  0  0  0  0
    6.0000   -2.5981    0.0000 N   0  0  0  0  0  0  0  0  0  0  0  0
    7.5000   -2.5981    0.0000 O   0  0  0  0  0  0  0  0  0  0  0  0
  1  2  2  0
  2  3  1  0
  3  4  2  3
  4  5  1  0
  5  6  2  0
  6  7  1  0
  7  8  2  0
  8  9  1  0
  9 10  1  0
 10 11  1  0
 11 12  1  0
 12 13  1  0
 13 14  1  0
 14 15  2  0
 15 16  1  0
 16 17  2  0
 17 18  1  0
 18 19  2  0
  8 20  1  0
 20 21  2  0
  2 22  1  0
 22 23  1  0
 21  5  1  0
 13 11  1  0
 19 14  1  0
M  END
>  <molecule_chembl_id>  (1101) 
CHEMBL4166084

>  <canonical_smiles>  (1101) 
O=C(C=Cc1ccc(CNC2CC2c2ccccc2)cc1)NO

>  <pchembl_value_mean>  (1101) 
7.6

>  <document_chembl_id>  (1101) 
CHEMBL4130471

$$$$

     RDKit          2D

 30 32  0  0  0  0  0  0  0  0999 V2000
   12.7500   -3.8971    0.0000 O   0  0  0  0  0  0  0  0  0  0  0  0
   12.0000   -5.1962    0.0000 C   0  0  0  0  0  0  0  0  0  0  0  0
   10.5000   -5.1962    0.0000 C   0  0  0  0  0  0  0  0  0  0  0  0
    9.7500   -3.8971    0.0000 C   0  0  0  0  0  0  0  0  0  0  0  0
    8.2500   -3.8971    0.0000 C   0  0  0  0  0  0  0  0  0  0  0  0
    7.5000   -2.5981    0.0000 C   0  0  0  0  0  0  0  0  0  0  0  0
    6.0000   -2.5981    0.0000 C   0  0  0  0  0  0  0  0  0  0  0  0
    5.2500   -1.2990    0.0000 C   0  0  0  0  0  0  0  0  0  0  0  0
    3.7500   -1.2990    0.0000 C   0  0  0  0  0  0  0  0  0  0  0  0
    3.0000   -2.5981    0.0000 O   0  0  0  0  0  0  0  0  0  0  0  0
    3.0000    0.0000    0.0000 N   0  0  0  0  0  0  0  0  0  0  0  0
    1.5000    0.0000    0.0000 C   0  0  0  0  0  0  0  0  0  0  0  0
    0.7500   -1.2990    0.0000 C   0  0  0  0  0  0  0  0  0  0  0  0
   -0.7500   -1.2990    0.0000 C   0  0  0  0  0  0  0  0  0  0  0  0
   -1.5000    0.0000    0.0000 C   0  0  0  0  0  0  0  0  0  0  0  0
   -0.7500    1.2990    0.0000 C   0  0  0  0  0  0  0  0  0  0  0  0
   -1.5000    2.5981    0.0000 N   0  0  0  0  0  0  0  0  0  0  0  0
   -2.9918    2.7549    0.0000 C   0  0  0  0  0  0  0  0  0  0  0  0
   -3.3037    4.2221    0.0000 C   0  0  0  0  0  0  0  0  0  0  0  0
   -4.6740    4.8322    0.0000 C   0  0  0  0  0  0  0  0  0  0  0  0
   -4.8308    6.3240    0.0000 C   0  0  0  0  0  0  0  0  0  0  0  0
   -6.2011    6.9341    0.0000 C   0  0  0  0  0  0  0  0  0  0  0  0
   -7.4146    6.0524    0.0000 C   0  0  0  0  0  0  0  0  0  0  0  0
   -7.2578    4.5606    0.0000 C   0  0  0  0  0  0  0  0  0  0  0  0
   -5.8875    3.9505    0.0000 C   0  0  0  0  0  0  0  0  0  0  0  0
   -2.0046    4.9721    0.0000 N   0  0  0  0  0  0  0  0  0  0  0  0
   -0.8899    3.9684    0.0000 N   0  0  0  0  0  0  0  0  0  0  0  0
    0.7500    1.2990    0.0000 C   0  0  0  0  0  0  0  0  0  0  0  0
   12.7500   -6.4952    0.0000 N   0  0  0  0  0  0  0  0  0  0  0  0
   14.2500   -6.4952    0.0000 O   0  0  0  0  0  0  0  0  0  0  0  0
  1  2  2  0
  2  3  1  0
  3  4  1  0
  4  5  1  0
  5  6  1  0
  6  7  1  0
  7  8  1  0
  8  9  1  0
  9 10  2  0
  9 11  1  0
 11 12  1  0
 12 13  2  0
 13 14  1  0
 14 15  2  0
 15 16  1  0
 16 17  1  0
 17 18  1  0
 18 19  2  0
 19 20  1  0
 20 21  2  0
 21 22  1  0
 22 23  2  0
 23 24  1  0
 24 25  2  0
 19 26  1  0
 26 27  2  0
 16 28  2  0
  2 29  1  0
 29 30  1  0
 28 12  1  0
 27 17  1  0
 25 20  1  0
M  END
>  <molecule_chembl_id>  (1102) 
CHEMBL1094709

>  <canonical_smiles>  (1102) 
O=C(CCCCCCC(=O)Nc1cccc(-n2cc(-c3ccccc3)nn2)c1)NO

>  <pchembl_value_mean>  (1102) 
7.6

>  <document_chembl_id>  (1102) 
CHEMBL1154884

$$$$

     RDKit          2D

 29 30  0  0  0  0  0  0  0  0999 V2000
    7.5000   -2.5981    0.0000 C   0  0  0  0  0  0  0  0  0  0  0  0
    6.0000   -2.5981    0.0000 C   0  0  0  0  0  0  0  0  0  0  0  0
    5.2500   -1.2990    0.0000 O   0  0  0  0  0  0  0  0  0  0  0  0
    3.7500   -1.2990    0.0000 C   0  0  0  0  0  0  0  0  0  0  0  0
    3.0000   -2.5981    0.0000 O   0  0  0  0  0  0  0  0  0  0  0  0
    3.0000    0.0000    0.0000 N   0  0  0  0  0  0  0  0  0  0  0  0
    1.5000    0.0000    0.0000 C   0  0  0  0  0  0  0  0  0  0  0  0
    0.7500   -1.2990    0.0000 C   0  0  0  0  0  0  0  0  0  0  0  0
   -0.7500   -1.2990    0.0000 C   0  0  0  0  0  0  0  0  0  0  0  0
   -1.5000    0.0000    0.0000 C   0  0  0  0  0  0  0  0  0  0  0  0
   -0.7500    1.2990    0.0000 C   0  0  0  0  0  0  0  0  0  0  0  0
   -1.5000    2.5981    0.0000 C   0  0  0  0  0  0  0  0  0  0  0  0
   -2.9918    2.7549    0.0000 C   0  0  0  0  0  0  0  0  0  0  0  0
   -3.3037    4.2221    0.0000 S   0  0  0  0  0  0  0  0  0  0  0  0
   -2.0046    4.9721    0.0000 C   0  0  0  0  0  0  0  0  0  0  0  0
   -1.8478    6.4639    0.0000 N   0  0  0  0  0  0  0  0  0  0  0  0
   -0.4775    7.0740    0.0000 C   0  0  0  0  0  0  0  0  0  0  0  0
    0.7360    6.1923    0.0000 O   0  0  0  0  0  0  0  0  0  0  0  0
   -0.3207    8.5658    0.0000 C   0  0  0  0  0  0  0  0  0  0  0  0
    1.0496    9.1759    0.0000 C   0  0  0  0  0  0  0  0  0  0  0  0
    1.2064   10.6676    0.0000 C   0  0  0  0  0  0  0  0  0  0  0  0
    2.5767   11.2778    0.0000 C   0  0  0  0  0  0  0  0  0  0  0  0
    2.7335   12.7695    0.0000 C   0  0  0  0  0  0  0  0  0  0  0  0
    4.1038   13.3796    0.0000 C   0  0  0  0  0  0  0  0  0  0  0  0
    5.3174   12.4980    0.0000 O   0  0  0  0  0  0  0  0  0  0  0  0
    4.2606   14.8714    0.0000 N   0  0  0  0  0  0  0  0  0  0  0  0
    5.6309   15.4815    0.0000 O   0  0  0  0  0  0  0  0  0  0  0  0
   -0.8899    3.9684    0.0000 N   0  0  0  0  0  0  0  0  0  0  0  0
    0.7500    1.2990    0.0000 C   0  0  0  0  0  0  0  0  0  0  0  0
  1  2  1  0
  2  3  1  0
  3  4  1  0
  4  5  2  0
  4  6  1  0
  6  7  1  0
  7  8  2  0
  8  9  1  0
  9 10  2  0
 10 11  1  0
 11 12  1  0
 12 13  2  0
 13 14  1  0
 14 15  1  0
 15 16  1  0
 16 17  1  0
 17 18  2  0
 17 19  1  0
 19 20  1  0
 20 21  1  0
 21 22  1  0
 22 23  1  0
 23 24  1  0
 24 25  2  0
 24 26  1  0
 26 27  1  0
 15 28  2  0
 11 29  2  0
 29  7  1  0
 28 12  1  0
M  END
>  <molecule_chembl_id>  (1103) 
CHEMBL4464421

>  <canonical_smiles>  (1103) 
CCOC(=O)Nc1cccc(-c2csc(NC(=O)CCCCCC(=O)NO)n2)c1

>  <pchembl_value_mean>  (1103) 
7.61

>  <document_chembl_id>  (1103) 
CHEMBL4400533

$$$$

     RDKit          2D

 31 33  0  0  0  0  0  0  0  0999 V2000
   12.7500   -3.8971    0.0000 O   0  0  0  0  0  0  0  0  0  0  0  0
   12.0000   -5.1962    0.0000 C   0  0  0  0  0  0  0  0  0  0  0  0
   10.5000   -5.1962    0.0000 C   0  0  0  0  0  0  0  0  0  0  0  0
    9.7500   -3.8971    0.0000 C   0  0  0  0  0  0  0  0  0  0  0  0
    8.2500   -3.8971    0.0000 C   0  0  0  0  0  0  0  0  0  0  0  0
    7.5000   -2.5981    0.0000 C   0  0  0  0  0  0  0  0  0  0  0  0
    6.0000   -2.5981    0.0000 C   0  0  0  0  0  0  0  0  0  0  0  0
    5.2500   -1.2990    0.0000 C   0  0  0  0  0  0  0  0  0  0  0  0
    3.7500   -1.2990    0.0000 C   0  0  0  0  0  0  0  0  0  0  0  0
    3.0000   -2.5981    0.0000 O   0  0  0  0  0  0  0  0  0  0  0  0
    3.0000    0.0000    0.0000 N   0  0  0  0  0  0  0  0  0  0  0  0
    1.5000    0.0000    0.0000 C   0  0  0  0  0  0  0  0  0  0  0  0
    0.7500   -1.2990    0.0000 C   0  0  0  0  0  0  0  0  0  0  0  0
   -0.7500   -1.2990    0.0000 C   0  0  0  0  0  0  0  0  0  0  0  0
   -1.5000    0.0000    0.0000 C   0  0  0  0  0  0  0  0  0  0  0  0
   -0.7500    1.2990    0.0000 C   0  0  0  0  0  0  0  0  0  0  0  0
   -1.5000    2.5981    0.0000 C   0  0  0  0  0  0  0  0  0  0  0  0
   -2.9918    2.7549    0.0000 C   0  0  0  0  0  0  0  0  0  0  0  0
   -3.3037    4.2221    0.0000 N   0  0  0  0  0  0  0  0  0  0  0  0
   -4.6740    4.8322    0.0000 C   0  0  0  0  0  0  0  0  0  0  0  0
   -4.8308    6.3240    0.0000 C   0  0  0  0  0  0  0  0  0  0  0  0
   -6.2011    6.9341    0.0000 C   0  0  0  0  0  0  0  0  0  0  0  0
   -7.4146    6.0524    0.0000 C   0  0  0  0  0  0  0  0  0  0  0  0
   -8.7849    6.6625    0.0000 I   0  0  0  0  0  0  0  0  0  0  0  0
   -7.2578    4.5606    0.0000 C   0  0  0  0  0  0  0  0  0  0  0  0
   -5.8875    3.9505    0.0000 C   0  0  0  0  0  0  0  0  0  0  0  0
   -2.0046    4.9721    0.0000 N   0  0  0  0  0  0  0  0  0  0  0  0
   -0.8899    3.9684    0.0000 N   0  0  0  0  0  0  0  0  0  0  0  0
    0.7500    1.2990    0.0000 C   0  0  0  0  0  0  0  0  0  0  0  0
   12.7500   -6.4952    0.0000 N   0  0  0  0  0  0  0  0  0  0  0  0
   14.2500   -6.4952    0.0000 O   0  0  0  0  0  0  0  0  0  0  0  0
  1  2  2  0
  2  3  1  0
  3  4  1  0
  4  5  1  0
  5  6  1  0
  6  7  1  0
  7  8  1  0
  8  9  1  0
  9 10  2  0
  9 11  1  0
 11 12  1  0
 12 13  2  0
 13 14  1  0
 14 15  2  0
 15 16  1  0
 16 17  1  0
 17 18  2  0
 18 19  1  0
 19 20  1  0
 20 21  2  0
 21 22  1  0
 22 23  2  0
 23 24  1  0
 23 25  1  0
 25 26  2  0
 19 27  1  0
 27 28  2  0
 16 29  2  0
  2 30  1  0
 30 31  1  0
 29 12  1  0
 28 17  1  0
 26 20  1  0
M  END
>  <molecule_chembl_id>  (1104) 
CHEMBL1091475

>  <canonical_smiles>  (1104) 
O=C(CCCCCCC(=O)Nc1cccc(-c2cn(-c3ccc(I)cc3)nn2)c1)NO

>  <pchembl_value_mean>  (1104) 
7.61

>  <document_chembl_id>  (1104) 
CHEMBL1154884

$$$$

     RDKit          2D

 34 37  0  0  0  0  0  0  0  0999 V2000
    3.7500   -1.2990    0.0000 C   0  0  0  0  0  0  0  0  0  0  0  0
    3.0000    0.0000    0.0000 O   0  0  0  0  0  0  0  0  0  0  0  0
    1.5000    0.0000    0.0000 C   0  0  0  0  0  0  0  0  0  0  0  0
    0.7500   -1.2990    0.0000 C   0  0  0  0  0  0  0  0  0  0  0  0
   -0.7500   -1.2990    0.0000 C   0  0  0  0  0  0  0  0  0  0  0  0
   -1.5000    0.0000    0.0000 C   0  0  0  0  0  0  0  0  0  0  0  0
   -3.0000    0.0000    0.0000 N   0  0  0  0  0  0  0  0  0  0  0  0
   -3.7500    1.2990    0.0000 C   0  0  0  0  0  0  0  0  0  0  0  0
   -3.0000    2.5981    0.0000 O   0  0  0  0  0  0  0  0  0  0  0  0
   -5.2500    1.2990    0.0000 N   0  0  0  0  0  0  0  0  0  0  0  0
   -6.0000    2.5981    0.0000 C   0  0  0  0  0  0  0  0  0  0  0  0
   -7.5000    2.5981    0.0000 C   0  0  0  0  0  0  0  0  0  0  0  0
   -8.2500    1.2990    0.0000 C   0  0  0  0  0  0  0  0  0  0  0  0
   -9.3991    2.2632    0.0000 N   0  0  0  0  0  0  0  0  0  0  0  0
   -9.1386    3.7404    0.0000 C   0  0  0  0  0  0  0  0  0  0  0  0
   -7.7291    4.2535    0.0000 N   0  0  0  0  0  0  0  0  0  0  0  0
   -7.4686    5.7307    0.0000 C   0  0  0  0  0  0  0  0  0  0  0  0
   -8.6176    6.6949    0.0000 C   0  0  0  0  0  0  0  0  0  0  0  0
   -8.3572    8.1721    0.0000 C   0  0  0  0  0  0  0  0  0  0  0  0
   -9.5062    9.1362    0.0000 O   0  0  0  0  0  0  0  0  0  0  0  0
   -6.9476    8.6851    0.0000 N   0  0  0  0  0  0  0  0  0  0  0  0
   -6.6872   10.1623    0.0000 O   0  0  0  0  0  0  0  0  0  0  0  0
  -10.0272    6.1818    0.0000 C   0  0  0  0  0  0  0  0  0  0  0  0
  -10.2877    4.7046    0.0000 N   0  0  0  0  0  0  0  0  0  0  0  0
   -9.3991    0.3349    0.0000 C   0  0  0  0  0  0  0  0  0  0  0  0
  -10.8086    0.8479    0.0000 C   0  0  0  0  0  0  0  0  0  0  0  0
  -11.9577   -0.1163    0.0000 C   0  0  0  0  0  0  0  0  0  0  0  0
  -11.6972   -1.5935    0.0000 C   0  0  0  0  0  0  0  0  0  0  0  0
  -10.2877   -2.1065    0.0000 C   0  0  0  0  0  0  0  0  0  0  0  0
   -9.1386   -1.1424    0.0000 C   0  0  0  0  0  0  0  0  0  0  0  0
   -7.5000    0.0000    0.0000 C   0  0  0  0  0  0  0  0  0  0  0  0
   -6.0000    0.0000    0.0000 C   0  0  0  0  0  0  0  0  0  0  0  0
   -0.7500    1.2990    0.0000 C   0  0  0  0  0  0  0  0  0  0  0  0
    0.7500    1.2990    0.0000 C   0  0  0  0  0  0  0  0  0  0  0  0
  1  2  1  0
  2  3  1  0
  3  4  2  0
  4  5  1  0
  5  6  2  0
  6  7  1  0
  7  8  1  0
  8  9  2  0
  8 10  1  0
 10 11  1  0
 11 12  1  0
 12 13  1  0
 13 14  1  0
 14 15  1  0
 15 16  2  0
 16 17  1  0
 17 18  2  0
 18 19  1  0
 19 20  2  0
 19 21  1  0
 21 22  1  0
 18 23  1  0
 23 24  2  0
 13 25  1  0
 25 26  2  0
 26 27  1  0
 27 28  2  0
 28 29  1  0
 29 30  2  0
 13 31  1  0
 31 32  1  0
  6 33  1  0
 33 34  2  0
 34  3  1  0
 32 10  1  0
 24 15  1  0
 30 25  1  0
M  END
>  <molecule_chembl_id>  (1105) 
CHEMBL3916257

>  <canonical_smiles>  (1105) 
COc1ccc(NC(=O)N2CCC(Nc3ncc(C(=O)NO)cn3)(c3ccccc3)CC2)cc1

>  <pchembl_value_mean>  (1105) 
7.62

>  <document_chembl_id>  (1105) 
CHEMBL3886590

$$$$

     RDKit          2D

 36 41  0  0  0  0  0  0  0  0999 V2000
    3.7500   -3.8971    0.0000 N   0  0  0  0  0  0  0  0  0  0  0  0
    3.0000   -5.1962    0.0000 C   0  0  0  0  0  0  0  0  0  0  0  0
    3.7500   -6.4952    0.0000 C   0  0  0  0  0  0  0  0  0  0  0  0
    3.0000   -7.7942    0.0000 C   0  0  0  0  0  0  0  0  0  0  0  0
    1.5000   -7.7942    0.0000 C   0  0  0  0  0  0  0  0  0  0  0  0
    0.7500   -9.0933    0.0000 C   0  0  0  0  0  0  0  0  0  0  0  0
   -0.7500   -9.0933    0.0000 C   0  0  0  0  0  0  0  0  0  0  0  0
   -1.5000  -10.3923    0.0000 C   0  0  0  0  0  0  0  0  0  0  0  0
   -0.7500  -11.6913    0.0000 N   0  0  0  0  0  0  0  0  0  0  0  0
    0.7500  -11.6913    0.0000 C   0  0  0  0  0  0  0  0  0  0  0  0
    1.5000  -10.3923    0.0000 C   0  0  0  0  0  0  0  0  0  0  0  0
    0.7500   -6.4952    0.0000 C   0  0  0  0  0  0  0  0  0  0  0  0
    1.5000   -5.1962    0.0000 C   0  0  0  0  0  0  0  0  0  0  0  0
    0.7500   -3.8971    0.0000 N   0  0  0  0  0  0  0  0  0  0  0  0
    1.5000   -2.5981    0.0000 C   0  0  0  0  0  0  0  0  0  0  0  0
    3.0000   -2.5981    0.0000 O   0  0  0  0  0  0  0  0  0  0  0  0
    0.7500   -1.2990    0.0000 C   0  0  0  0  0  0  0  0  0  0  0  0
    1.5000    0.0000    0.0000 C   0  0  0  0  0  0  0  0  0  0  0  0
    0.7500    1.2990    0.0000 N   0  0  0  0  0  0  0  0  0  0  0  0
   -0.7500    1.2990    0.0000 C   0  0  0  0  0  0  0  0  0  0  0  0
   -1.5000    0.0000    0.0000 C   0  0  0  0  0  0  0  0  0  0  0  0
   -0.7500   -1.2990    0.0000 C   0  0  0  0  0  0  0  0  0  0  0  0
   -2.9672    0.3119    0.0000 C   0  0  0  0  0  0  0  0  0  0  0  0
   -3.1240    1.8037    0.0000 C   0  0  0  0  0  0  0  0  0  0  0  0
   -4.4231    2.5537    0.0000 C   0  0  0  0  0  0  0  0  0  0  0  0
   -5.9231    2.5537    0.0000 C   0  0  0  0  0  0  0  0  0  0  0  0
   -5.1731    3.8527    0.0000 C   0  0  0  0  0  0  0  0  0  0  0  0
   -1.7537    2.4138    0.0000 N   0  0  0  0  0  0  0  0  0  0  0  0
   -1.4418    3.8810    0.0000 C   0  0  0  0  0  0  0  0  0  0  0  0
   -0.0152    4.3445    0.0000 C   0  0  0  0  0  0  0  0  0  0  0  0
    0.2966    5.8117    0.0000 N   0  0  0  0  0  0  0  0  0  0  0  0
    1.7232    6.2752    0.0000 C   0  0  0  0  0  0  0  0  0  0  0  0
    2.0351    7.7425    0.0000 C   0  0  0  0  0  0  0  0  0  0  0  0
    0.9204    8.7462    0.0000 O   0  0  0  0  0  0  0  0  0  0  0  0
   -0.5062    8.2826    0.0000 C   0  0  0  0  0  0  0  0  0  0  0  0
   -0.8181    6.8154    0.0000 C   0  0  0  0  0  0  0  0  0  0  0  0
  1  2  1  0
  2  3  2  0
  3  4  1  0
  4  5  2  0
  5  6  1  0
  6  7  2  0
  7  8  1  0
  8  9  2  0
  9 10  1  0
 10 11  2  0
  5 12  1  0
 12 13  2  0
 13 14  1  0
 14 15  1  0
 15 16  2  0
 15 17  1  0
 17 18  2  0
 18 19  1  0
 19 20  2  0
 20 21  1  0
 21 22  2  0
 21 23  1  0
 23 24  2  0
 24 25  1  0
 25 26  1  0
 26 27  1  0
 24 28  1  0
 28 29  1  0
 29 30  1  0
 30 31  1  0
 31 32  1  0
 32 33  1  0
 33 34  1  0
 34 35  1  0
 35 36  1  0
 13  2  1  0
 22 17  1  0
 27 25  1  0
 36 31  1  0
 11  6  1  0
 28 20  1  0
M  END
>  <molecule_chembl_id>  (1106) 
CHEMBL3914604

>  <canonical_smiles>  (1106) 
Nc1ccc(-c2ccncc2)cc1NC(=O)c1cnc2c(c1)cc(C1CC1)n2CCN1CCOCC1

>  <pchembl_value_mean>  (1106) 
7.62

>  <document_chembl_id>  (1106) 
CHEMBL3886267

$$$$

     RDKit          2D

 41 47  0  0  0  0  0  0  0  0999 V2000
    4.8840  -13.0558    0.0000 C   0  0  0  0  0  0  0  0  0  0  0  0
    3.4299  -12.6876    0.0000 C   0  0  0  0  0  0  0  0  0  0  0  0
    3.0217  -11.2442    0.0000 C   0  0  0  0  0  0  0  0  0  0  0  0
    4.0677  -10.1690    0.0000 O   0  0  0  0  0  0  0  0  0  0  0  0
    1.5676  -10.8760    0.0000 C   0  0  0  0  0  0  0  0  0  0  0  0
    1.1595   -9.4326    0.0000 C   0  0  0  0  0  0  0  0  0  0  0  0
   -0.2946   -9.0643    0.0000 C   0  0  0  0  0  0  0  0  0  0  0  0
   -0.7028   -7.6209    0.0000 C   0  0  0  0  0  0  0  0  0  0  0  0
   -2.1569   -7.2527    0.0000 C   0  0  0  0  0  0  0  0  0  0  0  0
   -2.5650   -5.8093    0.0000 C   0  0  0  0  0  0  0  0  0  0  0  0
   -1.2085   -5.1691    0.0000 N   0  0  0  0  0  0  0  0  0  0  0  0
   -0.1333   -4.1232    0.0000 C   0  0  0  0  0  0  0  0  0  0  0  0
    1.0753   -5.0116    0.0000 O   0  0  0  0  0  0  0  0  0  0  0  0
    0.5440   -2.7848    0.0000 C   0  0  0  0  0  0  0  0  0  0  0  0
    1.9337   -2.2204    0.0000 C   0  0  0  0  0  0  0  0  0  0  0  0
    0.7500   -1.2990    0.0000 C   0  0  0  0  0  0  0  0  0  0  0  0
    1.5000    0.0000    0.0000 C   0  0  0  0  0  0  0  0  0  0  0  0
    0.7500    1.2990    0.0000 C   0  0  0  0  0  0  0  0  0  0  0  0
   -0.7500    1.2990    0.0000 N   0  0  0  0  0  0  0  0  0  0  0  0
   -2.8085    3.0218    0.0000 C   0  0  0  0  0  0  0  0  0  0  0  0
   -4.3062    3.1044    0.0000 C   0  0  0  0  0  0  0  0  0  0  0  0
   -5.7496    2.6962    0.0000 C   0  0  0  0  0  0  0  0  0  0  0  0
   -6.9823    1.8415    0.0000 C   0  0  0  0  0  0  0  0  0  0  0  0
   -7.8706    0.6329    0.0000 N   0  0  0  0  0  0  0  0  0  0  0  0
   -9.0938    1.5011    0.0000 C   0  0  0  0  0  0  0  0  0  0  0  0
  -10.2975    0.6061    0.0000 C   0  0  0  0  0  0  0  0  0  0  0  0
   -9.8183   -0.8153    0.0000 C   0  0  0  0  0  0  0  0  0  0  0  0
   -8.3184   -0.7987    0.0000 C   0  0  0  0  0  0  0  0  0  0  0  0
   -8.2771   -2.2982    0.0000 C   0  0  0  0  0  0  0  0  0  0  0  0
   -7.7511   -3.7029    0.0000 C   0  0  0  0  0  0  0  0  0  0  0  0
   -8.7047   -4.8608    0.0000 C   0  0  0  0  0  0  0  0  0  0  0  0
  -10.1842   -4.6139    0.0000 C   0  0  0  0  0  0  0  0  0  0  0  0
  -10.7102   -3.2091    0.0000 C   0  0  0  0  0  0  0  0  0  0  0  0
   -9.7566   -2.0513    0.0000 C   0  0  0  0  0  0  0  0  0  0  0  0
   -6.7975   -4.8608    0.0000 C   0  0  0  0  0  0  0  0  0  0  0  0
   -6.9049   -6.3569    0.0000 C   0  0  0  0  0  0  0  0  0  0  0  0
   -5.5152   -6.9214    0.0000 N   0  0  0  0  0  0  0  0  0  0  0  0
   -4.0559   -5.9743    0.0000 C   0  0  0  0  0  0  0  0  0  0  0  0
   -5.5196   -5.6463    0.0000 N   0  0  0  0  0  0  0  0  0  0  0  0
   -1.5000    0.0000    0.0000 C   0  0  0  0  0  0  0  0  0  0  0  0
   -0.7500   -1.2990    0.0000 C   0  0  0  0  0  0  0  0  0  0  0  0
  1  2  1  0
  2  3  1  0
  3  4  2  0
  3  5  1  0
  5  6  1  0
  6  7  1  0
  7  8  1  0
  8  9  1  0
  9 10  1  0
 10 11  1  0
 11 12  1  0
 12 13  2  0
 12 14  1  0
 14 15  1  0
 15 16  1  0
 16 17  1  0
 17 18  1  0
 18 19  1  0
 19 20  1  0
 20 21  1  0
 21 22  1  0
 22 23  1  0
 23 24  1  0
 24 25  1  0
 25 26  1  0
 26 27  1  0
 27 28  1  0
 28 29  1  0
 29 30  2  0
 30 31  1  0
 31 32  2  0
 32 33  1  0
 33 34  2  0
 30 35  1  0
 35 36  2  0
 36 37  1  0
 37 38  2  0
 38 39  1  0
 19 40  1  0
 40 41  1  0
 38 10  1  0
 16 14  1  0
 28 24  1  0
 34 29  1  0
 39 35  1  0
 41 16  1  0
 34 25  1  0
M  END
>  <molecule_chembl_id>  (1107) 
CHEMBL4862470

>  <canonical_smiles>  (1107) 
CCC(=O)CCCCCC1NC(=O)C2CC23CCN(CCCCN2C4CCC2c2c(cccc24)-c2cnc1[nH]2)CC3

>  <pchembl_value_mean>  (1107) 
7.62

>  <document_chembl_id>  (1107) 
CHEMBL4811291

$$$$

     RDKit          2D

 31 34  0  0  0  0  0  0  0  0999 V2000
    3.0000    0.0000    0.0000 N   0  0  0  0  0  0  0  0  0  0  0  0
    1.5000    0.0000    0.0000 C   0  0  0  0  0  0  0  0  0  0  0  0
    0.7500   -1.2990    0.0000 N   0  0  0  0  0  0  0  0  0  0  0  0
   -0.7500   -1.2990    0.0000 C   0  0  0  0  0  0  0  0  0  0  0  0
   -1.5000    0.0000    0.0000 N   0  0  0  0  0  0  0  0  0  0  0  0
   -0.7500    1.2990    0.0000 C   0  0  0  0  0  0  0  0  0  0  0  0
    0.7500    1.2990    0.0000 C   0  0  0  0  0  0  0  0  0  0  0  0
    1.2135    2.7256    0.0000 C   0  0  0  0  0  0  0  0  0  0  0  0
    2.6401    3.1891    0.0000 C   0  0  0  0  0  0  0  0  0  0  0  0
    3.7548    2.1855    0.0000 C   0  0  0  0  0  0  0  0  0  0  0  0
    5.1814    2.6490    0.0000 N   0  0  0  0  0  0  0  0  0  0  0  0
    5.4933    4.1162    0.0000 C   0  0  0  0  0  0  0  0  0  0  0  0
    6.7923    4.8662    0.0000 N   0  0  0  0  0  0  0  0  0  0  0  0
    6.4805    6.3334    0.0000 C   0  0  0  0  0  0  0  0  0  0  0  0
    4.9887    6.4902    0.0000 C   0  0  0  0  0  0  0  0  0  0  0  0
    4.3786    5.1199    0.0000 C   0  0  0  0  0  0  0  0  0  0  0  0
    2.9520    4.6564    0.0000 C   0  0  0  0  0  0  0  0  0  0  0  0
   -0.0000    3.6073    0.0000 N   0  0  0  0  0  0  0  0  0  0  0  0
   -1.2135    2.7256    0.0000 N   0  0  0  0  0  0  0  0  0  0  0  0
   -2.6401    3.1891    0.0000 C   0  0  0  0  0  0  0  0  0  0  0  0
   -2.9520    4.6564    0.0000 C   0  0  0  0  0  0  0  0  0  0  0  0
   -4.3786    5.1199    0.0000 C   0  0  0  0  0  0  0  0  0  0  0  0
   -4.6904    6.5871    0.0000 C   0  0  0  0  0  0  0  0  0  0  0  0
   -6.1170    7.0506    0.0000 C   0  0  0  0  0  0  0  0  0  0  0  0
   -6.4289    8.5179    0.0000 C   0  0  0  0  0  0  0  0  0  0  0  0
   -7.8555    8.9814    0.0000 C   0  0  0  0  0  0  0  0  0  0  0  0
   -8.1673   10.4486    0.0000 C   0  0  0  0  0  0  0  0  0  0  0  0
   -9.5939   10.9121    0.0000 C   0  0  0  0  0  0  0  0  0  0  0  0
  -10.7086    9.9084    0.0000 O   0  0  0  0  0  0  0  0  0  0  0  0
   -9.9058   12.3794    0.0000 N   0  0  0  0  0  0  0  0  0  0  0  0
  -11.3324   12.8429    0.0000 O   0  0  0  0  0  0  0  0  0  0  0  0
  1  2  1  0
  2  3  2  0
  3  4  1  0
  4  5  2  0
  5  6  1  0
  6  7  2  0
  7  8  1  0
  8  9  1  0
  9 10  2  0
 10 11  1  0
 11 12  2  0
 12 13  1  0
 13 14  1  0
 14 15  2  0
 15 16  1  0
 16 17  2  0
  8 18  2  0
 18 19  1  0
 19 20  1  0
 20 21  1  0
 21 22  1  0
 22 23  1  0
 23 24  1  0
 24 25  1  0
 25 26  1  0
 26 27  1  0
 27 28  1  0
 28 29  2  0
 28 30  1  0
 30 31  1  0
  7  2  1  0
 17  9  1  0
 19  6  1  0
 16 12  1  0
M  END
>  <molecule_chembl_id>  (1108) 
CHEMBL4846776

>  <canonical_smiles>  (1108) 
Nc1ncnc2c1c(-c1cnc3[nH]ccc3c1)nn2CCCCCCCCC(=O)NO

>  <pchembl_value_mean>  (1108) 
7.62

>  <document_chembl_id>  (1108) 
CHEMBL4842376

$$$$

     RDKit          2D

 35 39  0  0  0  0  0  0  0  0999 V2000
    3.3802    9.0132    0.0000 C   0  0  0  0  0  0  0  0  0  0  0  0
    3.0684    7.5459    0.0000 C   0  0  0  0  0  0  0  0  0  0  0  0
    4.1831    6.5422    0.0000 C   0  0  0  0  0  0  0  0  0  0  0  0
    3.8712    5.0750    0.0000 C   0  0  0  0  0  0  0  0  0  0  0  0
    2.4446    4.6115    0.0000 C   0  0  0  0  0  0  0  0  0  0  0  0
    2.1328    3.1443    0.0000 N   0  0  0  0  0  0  0  0  0  0  0  0
    0.7062    2.6807    0.0000 C   0  0  0  0  0  0  0  0  0  0  0  0
   -0.4086    3.6844    0.0000 N   0  0  0  0  0  0  0  0  0  0  0  0
   -1.8351    3.2209    0.0000 C   0  0  0  0  0  0  0  0  0  0  0  0
   -2.9499    4.2246    0.0000 Cl  0  0  0  0  0  0  0  0  0  0  0  0
   -2.1470    1.7537    0.0000 N   0  0  0  0  0  0  0  0  0  0  0  0
   -1.0323    0.7500    0.0000 C   0  0  0  0  0  0  0  0  0  0  0  0
    0.3943    1.2135    0.0000 C   0  0  0  0  0  0  0  0  0  0  0  0
    1.2760    0.0000    0.0000 N   0  0  0  0  0  0  0  0  0  0  0  0
    0.3943   -1.2135    0.0000 C   0  0  0  0  0  0  0  0  0  0  0  0
   -1.0323   -0.7500    0.0000 N   0  0  0  0  0  0  0  0  0  0  0  0
   -2.2458   -1.6317    0.0000 C   0  0  0  0  0  0  0  0  0  0  0  0
   -2.0890   -3.1235    0.0000 C   0  0  0  0  0  0  0  0  0  0  0  0
   -3.3025   -4.0051    0.0000 C   0  0  0  0  0  0  0  0  0  0  0  0
   -3.1458   -5.4969    0.0000 C   0  0  0  0  0  0  0  0  0  0  0  0
   -1.7754   -6.1070    0.0000 C   0  0  0  0  0  0  0  0  0  0  0  0
   -1.6186   -7.5988    0.0000 C   0  0  0  0  0  0  0  0  0  0  0  0
   -0.2483   -8.2089    0.0000 O   0  0  0  0  0  0  0  0  0  0  0  0
   -2.8322   -8.4805    0.0000 N   0  0  0  0  0  0  0  0  0  0  0  0
   -2.6754   -9.9723    0.0000 C   0  0  0  0  0  0  0  0  0  0  0  0
   -3.8889  -10.8539    0.0000 C   0  0  0  0  0  0  0  0  0  0  0  0
   -3.7321  -12.3457    0.0000 C   0  0  0  0  0  0  0  0  0  0  0  0
   -2.3618  -12.9558    0.0000 C   0  0  0  0  0  0  0  0  0  0  0  0
   -1.1483  -12.0742    0.0000 C   0  0  0  0  0  0  0  0  0  0  0  0
   -1.3051  -10.5824    0.0000 C   0  0  0  0  0  0  0  0  0  0  0  0
   -0.0915   -9.7007    0.0000 N   0  0  0  0  0  0  0  0  0  0  0  0
   -0.5619   -5.2253    0.0000 C   0  0  0  0  0  0  0  0  0  0  0  0
   -0.7187   -3.7336    0.0000 C   0  0  0  0  0  0  0  0  0  0  0  0
    1.3299    5.6152    0.0000 C   0  0  0  0  0  0  0  0  0  0  0  0
    1.6418    7.0824    0.0000 C   0  0  0  0  0  0  0  0  0  0  0  0
  1  2  1  0
  2  3  2  0
  3  4  1  0
  4  5  2  0
  5  6  1  0
  6  7  1  0
  7  8  2  0
  8  9  1  0
  9 10  1  0
  9 11  2  0
 11 12  1  0
 12 13  2  0
 13 14  1  0
 14 15  2  0
 15 16  1  0
 16 17  1  0
 17 18  1  0
 18 19  2  0
 19 20  1  0
 20 21  2  0
 21 22  1  0
 22 23  2  0
 22 24  1  0
 24 25  1  0
 25 26  2  0
 26 27  1  0
 27 28  2  0
 28 29  1  0
 29 30  2  0
 30 31  1  0
 21 32  1  0
 32 33  2  0
  5 34  1  0
 34 35  2  0
 35  2  1  0
 13  7  1  0
 33 18  1  0
 16 12  1  0
 30 25  1  0
M  END
>  <molecule_chembl_id>  (1109) 
CHEMBL4795802

>  <canonical_smiles>  (1109) 
Cc1ccc(Nc2nc(Cl)nc3c2ncn3Cc2ccc(C(=O)Nc3ccccc3N)cc2)cc1

>  <pchembl_value_mean>  (1109) 
7.64

>  <document_chembl_id>  (1109) 
CHEMBL4765302

$$$$

     RDKit          2D

 22 24  0  0  0  0  0  0  0  0999 V2000
    3.0000    0.0000    0.0000 C   0  0  0  0  0  0  0  0  0  0  0  0
    1.5000    0.0000    0.0000 C   0  0  0  0  0  0  0  0  0  0  0  0
    0.7500   -1.2990    0.0000 C   0  0  0  0  0  0  0  0  0  0  0  0
   -0.7500   -1.2990    0.0000 C   0  0  0  0  0  0  0  0  0  0  0  0
   -1.5000   -2.5981    0.0000 C   0  0  0  0  0  0  0  0  0  0  0  0
   -0.3509   -3.5623    0.0000 N   0  0  0  0  0  0  0  0  0  0  0  0
   -0.6114   -5.0395    0.0000 C   0  0  0  0  0  0  0  0  0  0  0  0
   -2.0209   -5.5525    0.0000 N   0  0  0  0  0  0  0  0  0  0  0  0
   -2.2814   -7.0297    0.0000 C   0  0  0  0  0  0  0  0  0  0  0  0
   -1.1324   -7.9939    0.0000 C   0  0  0  0  0  0  0  0  0  0  0  0
   -1.3928   -9.4711    0.0000 C   0  0  0  0  0  0  0  0  0  0  0  0
   -0.2438  -10.4353    0.0000 O   0  0  0  0  0  0  0  0  0  0  0  0
   -2.8024   -9.9841    0.0000 N   0  0  0  0  0  0  0  0  0  0  0  0
   -3.0628  -11.4613    0.0000 O   0  0  0  0  0  0  0  0  0  0  0  0
    0.2772   -7.4809    0.0000 C   0  0  0  0  0  0  0  0  0  0  0  0
    0.5377   -6.0037    0.0000 N   0  0  0  0  0  0  0  0  0  0  0  0
   -2.6491   -3.5623    0.0000 C   0  0  0  0  0  0  0  0  0  0  0  0
   -2.9095   -2.0850    0.0000 C   0  0  0  0  0  0  0  0  0  0  0  0
   -1.5000    0.0000    0.0000 C   0  0  0  0  0  0  0  0  0  0  0  0
   -0.7500    1.2990    0.0000 C   0  0  0  0  0  0  0  0  0  0  0  0
    0.7500    1.2990    0.0000 C   0  0  0  0  0  0  0  0  0  0  0  0
    1.5000    2.5981    0.0000 F   0  0  0  0  0  0  0  0  0  0  0  0
  1  2  1  0
  2  3  2  0
  3  4  1  0
  4  5  1  0
  5  6  1  0
  6  7  1  0
  7  8  2  0
  8  9  1  0
  9 10  2  0
 10 11  1  0
 11 12  2  0
 11 13  1  0
 13 14  1  0
 10 15  1  0
 15 16  2  0
  5 17  1  0
 17 18  1  0
  4 19  2  0
 19 20  1  0
 20 21  2  0
 21 22  1  0
 21  2  1  0
 18  5  1  0
 16  7  1  0
M  END
>  <molecule_chembl_id>  (1110) 
CHEMBL3656011

>  <canonical_smiles>  (1110) 
Cc1cc(C2(Nc3ncc(C(=O)NO)cn3)CC2)ccc1F

>  <pchembl_value_mean>  (1110) 
7.64

>  <document_chembl_id>  (1110) 
CHEMBL3639071

$$$$

     RDKit          2D

 30 32  0  0  0  0  0  0  0  0999 V2000
   12.7500   -3.8971    0.0000 O   0  0  0  0  0  0  0  0  0  0  0  0
   12.0000   -5.1962    0.0000 C   0  0  0  0  0  0  0  0  0  0  0  0
   10.5000   -5.1962    0.0000 C   0  0  0  0  0  0  0  0  0  0  0  0
    9.7500   -3.8971    0.0000 C   0  0  0  0  0  0  0  0  0  0  0  0
    8.2500   -3.8971    0.0000 C   0  0  0  0  0  0  0  0  0  0  0  0
    7.5000   -2.5981    0.0000 C   0  0  0  0  0  0  0  0  0  0  0  0
    6.0000   -2.5981    0.0000 C   0  0  0  0  0  0  0  0  0  0  0  0
    5.2500   -1.2990    0.0000 C   0  0  0  0  0  0  0  0  0  0  0  0
    3.7500   -1.2990    0.0000 N   0  0  0  0  0  0  0  0  0  0  0  0
    3.0000    0.0000    0.0000 C   0  0  0  0  0  0  0  0  0  0  0  0
    3.7500    1.2990    0.0000 O   0  0  0  0  0  0  0  0  0  0  0  0
    1.5000    0.0000    0.0000 C   0  0  0  0  0  0  0  0  0  0  0  0
    0.7500   -1.2990    0.0000 C   0  0  0  0  0  0  0  0  0  0  0  0
   -0.7500   -1.2990    0.0000 C   0  0  0  0  0  0  0  0  0  0  0  0
   -1.5000    0.0000    0.0000 C   0  0  0  0  0  0  0  0  0  0  0  0
   -3.0000    0.0000    0.0000 C   0  0  0  0  0  0  0  0  0  0  0  0
   -3.7500    1.2990    0.0000 N   0  0  0  0  0  0  0  0  0  0  0  0
   -5.2500    1.2990    0.0000 C   0  0  0  0  0  0  0  0  0  0  0  0
   -5.5105   -0.1782    0.0000 C   0  0  0  0  0  0  0  0  0  0  0  0
   -6.9200   -0.6912    0.0000 C   0  0  0  0  0  0  0  0  0  0  0  0
   -7.1805   -2.1684    0.0000 C   0  0  0  0  0  0  0  0  0  0  0  0
   -6.0314   -3.1326    0.0000 C   0  0  0  0  0  0  0  0  0  0  0  0
   -4.6219   -2.6196    0.0000 C   0  0  0  0  0  0  0  0  0  0  0  0
   -4.3614   -1.1424    0.0000 C   0  0  0  0  0  0  0  0  0  0  0  0
   -6.6595    1.8121    0.0000 C   0  0  0  0  0  0  0  0  0  0  0  0
   -5.5105    2.7762    0.0000 C   0  0  0  0  0  0  0  0  0  0  0  0
   -0.7500    1.2990    0.0000 C   0  0  0  0  0  0  0  0  0  0  0  0
    0.7500    1.2990    0.0000 C   0  0  0  0  0  0  0  0  0  0  0  0
   12.7500   -6.4952    0.0000 N   0  0  0  0  0  0  0  0  0  0  0  0
   14.2500   -6.4952    0.0000 O   0  0  0  0  0  0  0  0  0  0  0  0
  1  2  2  0
  2  3  1  0
  3  4  1  0
  4  5  1  0
  5  6  1  0
  6  7  1  0
  7  8  1  0
  8  9  1  0
  9 10  1  0
 10 11  2  0
 10 12  1  0
 12 13  2  0
 13 14  1  0
 14 15  2  0
 15 16  1  0
 16 17  1  0
 17 18  1  0
 18 19  1  0
 19 20  2  0
 20 21  1  0
 21 22  2  0
 22 23  1  0
 23 24  2  0
 18 25  1  0
 25 26  1  0
 15 27  1  0
 27 28  2  0
  2 29  1  0
 29 30  1  0
 28 12  1  0
 26 18  1  0
 24 19  1  0
M  END
>  <molecule_chembl_id>  (1111) 
CHEMBL4173338

>  <canonical_smiles>  (1111) 
O=C(CCCCCCNC(=O)c1ccc(CNC2(c3ccccc3)CC2)cc1)NO

>  <pchembl_value_mean>  (1111) 
7.64

>  <document_chembl_id>  (1111) 
CHEMBL4130471

$$$$

     RDKit          2D

 33 37  0  0  0  0  0  0  0  0999 V2000
    3.7500   -3.8971    0.0000 N   0  0  0  0  0  0  0  0  0  0  0  0
    3.0000   -5.1962    0.0000 C   0  0  0  0  0  0  0  0  0  0  0  0
    3.7500   -6.4952    0.0000 C   0  0  0  0  0  0  0  0  0  0  0  0
    3.0000   -7.7942    0.0000 C   0  0  0  0  0  0  0  0  0  0  0  0
    1.5000   -7.7942    0.0000 C   0  0  0  0  0  0  0  0  0  0  0  0
    0.7500   -9.0933    0.0000 C   0  0  0  0  0  0  0  0  0  0  0  0
   -0.7500   -9.0933    0.0000 C   0  0  0  0  0  0  0  0  0  0  0  0
   -1.5000  -10.3923    0.0000 C   0  0  0  0  0  0  0  0  0  0  0  0
   -0.7500  -11.6913    0.0000 C   0  0  0  0  0  0  0  0  0  0  0  0
    0.7500  -11.6913    0.0000 C   0  0  0  0  0  0  0  0  0  0  0  0
    1.5000  -10.3923    0.0000 C   0  0  0  0  0  0  0  0  0  0  0  0
    0.7500   -6.4952    0.0000 C   0  0  0  0  0  0  0  0  0  0  0  0
    1.5000   -5.1962    0.0000 C   0  0  0  0  0  0  0  0  0  0  0  0
    0.7500   -3.8971    0.0000 N   0  0  0  0  0  0  0  0  0  0  0  0
    1.5000   -2.5981    0.0000 C   0  0  0  0  0  0  0  0  0  0  0  0
    3.0000   -2.5981    0.0000 O   0  0  0  0  0  0  0  0  0  0  0  0
    0.7500   -1.2990    0.0000 C   0  0  0  0  0  0  0  0  0  0  0  0
    1.5000    0.0000    0.0000 C   0  0  0  0  0  0  0  0  0  0  0  0
    0.7500    1.2990    0.0000 C   0  0  0  0  0  0  0  0  0  0  0  0
   -0.7500    1.2990    0.0000 C   0  0  0  0  0  0  0  0  0  0  0  0
   -1.7537    2.4138    0.0000 N   0  0  0  0  0  0  0  0  0  0  0  0
   -3.1240    1.8037    0.0000 N   0  0  0  0  0  0  0  0  0  0  0  0
   -4.4231    2.5537    0.0000 C   0  0  0  0  0  0  0  0  0  0  0  0
   -4.4231    4.0537    0.0000 C   0  0  0  0  0  0  0  0  0  0  0  0
   -5.7221    4.8037    0.0000 N   0  0  0  0  0  0  0  0  0  0  0  0
   -5.7221    6.3037    0.0000 C   0  0  0  0  0  0  0  0  0  0  0  0
   -7.0211    7.0537    0.0000 C   0  0  0  0  0  0  0  0  0  0  0  0
   -8.3202    6.3037    0.0000 O   0  0  0  0  0  0  0  0  0  0  0  0
   -8.3202    4.8037    0.0000 C   0  0  0  0  0  0  0  0  0  0  0  0
   -7.0211    4.0537    0.0000 C   0  0  0  0  0  0  0  0  0  0  0  0
   -2.9672    0.3119    0.0000 C   0  0  0  0  0  0  0  0  0  0  0  0
   -1.5000    0.0000    0.0000 C   0  0  0  0  0  0  0  0  0  0  0  0
   -0.7500   -1.2990    0.0000 C   0  0  0  0  0  0  0  0  0  0  0  0
  1  2  1  0
  2  3  2  0
  3  4  1  0
  4  5  2  0
  5  6  1  0
  6  7  2  0
  7  8  1  0
  8  9  2  0
  9 10  1  0
 10 11  2  0
  5 12  1  0
 12 13  2  0
 13 14  1  0
 14 15  1  0
 15 16  2  0
 15 17  1  0
 17 18  1  0
 18 19  2  0
 19 20  1  0
 20 21  2  0
 21 22  1  0
 22 23  1  0
 23 24  1  0
 24 25  1  0
 25 26  1  0
 26 27  1  0
 27 28  1  0
 28 29  1  0
 29 30  1  0
 22 31  1  0
 31 32  2  0
 32 33  1  0
 13  2  1  0
 33 17  2  0
 11  6  1  0
 32 20  1  0
 30 25  1  0
M  END
>  <molecule_chembl_id>  (1112) 
CHEMBL3912393

>  <canonical_smiles>  (1112) 
Nc1ccc(-c2ccccc2)cc1NC(=O)c1ccc2nn(CCN3CCOCC3)cc2c1

>  <pchembl_value_mean>  (1112) 
7.64

>  <document_chembl_id>  (1112) 
CHEMBL3886267

$$$$

     RDKit          2D

 34 37  0  0  0  0  0  0  0  0999 V2000
   -7.5000   -5.1962    0.0000 O   0  0  0  0  0  0  0  0  0  0  0  0
   -6.0000   -5.1962    0.0000 C   0  0  0  0  0  0  0  0  0  0  0  0
   -5.2500   -6.4952    0.0000 N   0  0  0  0  0  0  0  0  0  0  0  0
   -6.0000   -7.7942    0.0000 O   0  0  0  0  0  0  0  0  0  0  0  0
   -5.2500   -3.8971    0.0000 C   0  0  0  0  0  0  0  0  0  0  0  0
   -3.7500   -3.8971    0.0000 C   0  0  0  0  0  0  0  0  0  0  0  0
   -3.0000   -2.5981    0.0000 N   0  0  0  0  0  0  0  0  0  0  0  0
   -3.7500   -1.2990    0.0000 C   0  0  0  0  0  0  0  0  0  0  0  0
   -3.0000    0.0000    0.0000 N   0  0  0  0  0  0  0  0  0  0  0  0
   -3.7500    1.2990    0.0000 C   0  0  0  0  0  0  0  0  0  0  0  0
   -2.3405    1.8121    0.0000 C   0  0  0  0  0  0  0  0  0  0  0  0
   -1.1914    0.8479    0.0000 C   0  0  0  0  0  0  0  0  0  0  0  0
    0.2181    1.3609    0.0000 C   0  0  0  0  0  0  0  0  0  0  0  0
    0.4786    2.8381    0.0000 C   0  0  0  0  0  0  0  0  0  0  0  0
   -0.6704    3.8023    0.0000 C   0  0  0  0  0  0  0  0  0  0  0  0
   -2.0800    3.2893    0.0000 C   0  0  0  0  0  0  0  0  0  0  0  0
   -4.8991    0.3349    0.0000 C   0  0  0  0  0  0  0  0  0  0  0  0
   -6.3086    0.8479    0.0000 C   0  0  0  0  0  0  0  0  0  0  0  0
   -6.5691    2.3251    0.0000 N   0  0  0  0  0  0  0  0  0  0  0  0
   -7.9786    2.8381    0.0000 C   0  0  0  0  0  0  0  0  0  0  0  0
   -9.1277    1.8739    0.0000 O   0  0  0  0  0  0  0  0  0  0  0  0
   -8.2391    4.3153    0.0000 N   0  0  0  0  0  0  0  0  0  0  0  0
   -9.6486    4.8284    0.0000 C   0  0  0  0  0  0  0  0  0  0  0  0
   -9.9091    6.3056    0.0000 C   0  0  0  0  0  0  0  0  0  0  0  0
   -8.7600    7.2698    0.0000 F   0  0  0  0  0  0  0  0  0  0  0  0
  -11.3186    6.8186    0.0000 C   0  0  0  0  0  0  0  0  0  0  0  0
  -12.4677    5.8544    0.0000 C   0  0  0  0  0  0  0  0  0  0  0  0
  -12.2072    4.3772    0.0000 C   0  0  0  0  0  0  0  0  0  0  0  0
  -10.7977    3.8642    0.0000 C   0  0  0  0  0  0  0  0  0  0  0  0
  -10.5372    2.3870    0.0000 F   0  0  0  0  0  0  0  0  0  0  0  0
   -5.4200    3.2893    0.0000 C   0  0  0  0  0  0  0  0  0  0  0  0
   -4.0105    2.7762    0.0000 C   0  0  0  0  0  0  0  0  0  0  0  0
   -5.2500   -1.2990    0.0000 N   0  0  0  0  0  0  0  0  0  0  0  0
   -6.0000   -2.5981    0.0000 C   0  0  0  0  0  0  0  0  0  0  0  0
  1  2  2  0
  2  3  1  0
  3  4  1  0
  2  5  1  0
  5  6  2  0
  6  7  1  0
  7  8  2  0
  8  9  1  0
  9 10  1  0
 10 11  1  0
 11 12  2  0
 12 13  1  0
 13 14  2  0
 14 15  1  0
 15 16  2  0
 10 17  1  0
 17 18  1  0
 18 19  1  0
 19 20  1  0
 20 21  2  0
 20 22  1  0
 22 23  1  0
 23 24  2  0
 24 25  1  0
 24 26  1  0
 26 27  2  0
 27 28  1  0
 28 29  2  0
 29 30  1  0
 19 31  1  0
 31 32  1  0
  8 33  1  0
 33 34  2  0
 34  5  1  0
 32 10  1  0
 16 11  1  0
 29 23  1  0
M  END
>  <molecule_chembl_id>  (1113) 
CHEMBL3916028

>  <canonical_smiles>  (1113) 
O=C(NO)c1cnc(NC2(c3ccccc3)CCN(C(=O)Nc3c(F)cccc3F)CC2)nc1

>  <pchembl_value_mean>  (1113) 
7.66

>  <document_chembl_id>  (1113) 
CHEMBL3886590

$$$$

     RDKit          2D

 43 48  0  0  0  0  0  0  0  0999 V2000
    7.6844  -11.0655    0.0000 C   0  0  0  0  0  0  0  0  0  0  0  0
    6.1879  -11.1678    0.0000 C   0  0  0  0  0  0  0  0  0  0  0  0
    5.3510   -9.9230    0.0000 C   0  0  0  0  0  0  0  0  0  0  0  0
    6.0106   -8.5758    0.0000 O   0  0  0  0  0  0  0  0  0  0  0  0
    3.8545  -10.0254    0.0000 C   0  0  0  0  0  0  0  0  0  0  0  0
    3.0176   -8.7805    0.0000 C   0  0  0  0  0  0  0  0  0  0  0  0
    1.5211   -8.8829    0.0000 C   0  0  0  0  0  0  0  0  0  0  0  0
    0.6842   -7.6381    0.0000 C   0  0  0  0  0  0  0  0  0  0  0  0
   -0.8123   -7.7404    0.0000 C   0  0  0  0  0  0  0  0  0  0  0  0
   -1.6492   -6.4956    0.0000 C   0  0  0  0  0  0  0  0  0  0  0  0
   -0.5300   -5.4970    0.0000 N   0  0  0  0  0  0  0  0  0  0  0  0
    0.2784   -4.2334    0.0000 C   0  0  0  0  0  0  0  0  0  0  0  0
    1.6402   -4.8622    0.0000 O   0  0  0  0  0  0  0  0  0  0  0  0
    0.7159   -2.7986    0.0000 C   0  0  0  0  0  0  0  0  0  0  0  0
    2.0316   -2.0784    0.0000 C   0  0  0  0  0  0  0  0  0  0  0  0
    0.7500   -1.2990    0.0000 C   0  0  0  0  0  0  0  0  0  0  0  0
    1.5000    0.0000    0.0000 C   0  0  0  0  0  0  0  0  0  0  0  0
    0.7500    1.2990    0.0000 C   0  0  0  0  0  0  0  0  0  0  0  0
   -0.7500    1.2990    0.0000 N   0  0  0  0  0  0  0  0  0  0  0  0
   -2.7601    3.2220    0.0000 C   0  0  0  0  0  0  0  0  0  0  0  0
   -4.2214    3.5605    0.0000 C   0  0  0  0  0  0  0  0  0  0  0  0
   -5.7199    3.4922    0.0000 C   0  0  0  0  0  0  0  0  0  0  0  0
   -7.1444    3.0222    0.0000 O   0  0  0  0  0  0  0  0  0  0  0  0
   -8.3892    2.1853    0.0000 C   0  0  0  0  0  0  0  0  0  0  0  0
   -9.3621    1.0436    0.0000 C   0  0  0  0  0  0  0  0  0  0  0  0
   -9.9908   -0.3183    0.0000 N   0  0  0  0  0  0  0  0  0  0  0  0
  -10.2288   -1.7993    0.0000 C   0  0  0  0  0  0  0  0  0  0  0  0
  -10.0585   -3.2895    0.0000 C   0  0  0  0  0  0  0  0  0  0  0  0
   -9.4923   -4.6786    0.0000 C   0  0  0  0  0  0  0  0  0  0  0  0
   -8.5724   -5.8634    0.0000 C   0  0  0  0  0  0  0  0  0  0  0  0
   -7.3670   -6.7561    0.0000 C   0  0  0  0  0  0  0  0  0  0  0  0
   -7.6862   -5.2905    0.0000 C   0  0  0  0  0  0  0  0  0  0  0  0
   -8.3891   -3.9653    0.0000 C   0  0  0  0  0  0  0  0  0  0  0  0
   -9.2543   -3.1976    0.0000 C   0  0  0  0  0  0  0  0  0  0  0  0
   -9.4247   -1.7073    0.0000 C   0  0  0  0  0  0  0  0  0  0  0  0
   -7.9715   -1.3356    0.0000 O   0  0  0  0  0  0  0  0  0  0  0  0
   -5.9654   -7.2905    0.0000 C   0  0  0  0  0  0  0  0  0  0  0  0
   -5.4374   -8.6945    0.0000 C   0  0  0  0  0  0  0  0  0  0  0  0
   -3.9390   -8.6262    0.0000 N   0  0  0  0  0  0  0  0  0  0  0  0
   -2.9964   -7.1552    0.0000 C   0  0  0  0  0  0  0  0  0  0  0  0
   -4.4716   -7.4269    0.0000 N   0  0  0  0  0  0  0  0  0  0  0  0
   -1.5000    0.0000    0.0000 C   0  0  0  0  0  0  0  0  0  0  0  0
   -0.7500   -1.2990    0.0000 C   0  0  0  0  0  0  0  0  0  0  0  0
  1  2  1  0
  2  3  1  0
  3  4  2  0
  3  5  1  0
  5  6  1  0
  6  7  1  0
  7  8  1  0
  8  9  1  0
  9 10  1  0
 10 11  1  0
 11 12  1  0
 12 13  2  0
 12 14  1  0
 14 15  1  0
 15 16  1  0
 16 17  1  0
 17 18  1  0
 18 19  1  0
 19 20  1  0
 20 21  1  0
 21 22  1  0
 22 23  1  0
 23 24  1  0
 24 25  1  0
 25 26  1  0
 26 27  1  0
 27 28  2  0
 28 29  1  0
 29 30  2  0
 30 31  1  0
 31 32  2  0
 32 33  1  0
 33 34  2  0
 34 35  1  0
 35 36  2  0
 31 37  1  0
 37 38  2  0
 38 39  1  0
 39 40  2  0
 40 41  1  0
 19 42  1  0
 42 43  1  0
 40 10  1  0
 16 14  1  0
 35 26  1  0
 41 37  1  0
 43 16  1  0
 34 29  1  0
M  END
>  <molecule_chembl_id>  (1114) 
CHEMBL4876610

>  <canonical_smiles>  (1114) 
CCC(=O)CCCCCC1NC(=O)C2CC23CCN(CCCOCCn2ccc4cc(ccc4c2=O)-c2cnc1[nH]2)CC3

>  <pchembl_value_mean>  (1114) 
7.66

>  <document_chembl_id>  (1114) 
CHEMBL4811291

$$$$

     RDKit          2D

 29 31  0  0  0  0  0  0  0  0999 V2000
   -2.6491   -1.6339    0.0000 C   0  0  0  0  0  0  0  0  0  0  0  0
   -1.5000   -2.5981    0.0000 C   0  0  0  0  0  0  0  0  0  0  0  0
   -2.6491   -3.5623    0.0000 C   0  0  0  0  0  0  0  0  0  0  0  0
   -0.7500   -3.8971    0.0000 C   0  0  0  0  0  0  0  0  0  0  0  0
    0.7500   -3.8971    0.0000 C   0  0  0  0  0  0  0  0  0  0  0  0
    1.5000   -5.1962    0.0000 O   0  0  0  0  0  0  0  0  0  0  0  0
    1.5000   -2.5981    0.0000 N   0  0  0  0  0  0  0  0  0  0  0  0
    0.7500   -1.2990    0.0000 C   0  0  0  0  0  0  0  0  0  0  0  0
    1.5000    0.0000    0.0000 C   0  0  0  0  0  0  0  0  0  0  0  0
    0.7500    1.2990    0.0000 C   0  0  0  0  0  0  0  0  0  0  0  0
   -0.7500    1.2990    0.0000 C   0  0  0  0  0  0  0  0  0  0  0  0
   -1.5000    2.5981    0.0000 C   0  0  0  0  0  0  0  0  0  0  0  0
   -3.0000    2.5981    0.0000 O   0  0  0  0  0  0  0  0  0  0  0  0
   -0.7500    3.8971    0.0000 N   0  0  0  0  0  0  0  0  0  0  0  0
   -1.5000    5.1962    0.0000 C   0  0  0  0  0  0  0  0  0  0  0  0
   -0.7500    6.4952    0.0000 C   0  0  0  0  0  0  0  0  0  0  0  0
    0.7500    6.4952    0.0000 C   0  0  0  0  0  0  0  0  0  0  0  0
    1.5000    7.7942    0.0000 C   0  0  0  0  0  0  0  0  0  0  0  0
    0.7500    9.0933    0.0000 C   0  0  0  0  0  0  0  0  0  0  0  0
    1.5000   10.3923    0.0000 C   0  0  0  0  0  0  0  0  0  0  0  0
    3.0000   10.3923    0.0000 C   0  0  0  0  0  0  0  0  0  0  0  0
    3.7500   11.6913    0.0000 C   0  0  0  0  0  0  0  0  0  0  0  0
    3.0000   12.9904    0.0000 O   0  0  0  0  0  0  0  0  0  0  0  0
    5.2500   11.6913    0.0000 N   0  0  0  0  0  0  0  0  0  0  0  0
    6.0000   12.9904    0.0000 O   0  0  0  0  0  0  0  0  0  0  0  0
   -0.7500    9.0933    0.0000 C   0  0  0  0  0  0  0  0  0  0  0  0
   -1.5000    7.7942    0.0000 C   0  0  0  0  0  0  0  0  0  0  0  0
   -1.5000    0.0000    0.0000 C   0  0  0  0  0  0  0  0  0  0  0  0
   -0.7500   -1.2990    0.0000 C   0  0  0  0  0  0  0  0  0  0  0  0
  1  2  1  0
  2  3  1  0
  2  4  1  0
  4  5  1  0
  5  6  2  0
  5  7  1  0
  7  8  1  0
  8  9  2  0
  9 10  1  0
 10 11  2  0
 11 12  1  0
 12 13  2  0
 12 14  1  0
 14 15  1  0
 15 16  1  0
 16 17  2  0
 17 18  1  0
 18 19  2  0
 19 20  1  0
 20 21  2  3
 21 22  1  0
 22 23  2  0
 22 24  1  0
 24 25  1  0
 19 26  1  0
 26 27  2  0
 11 28  1  0
 28 29  2  0
 29  2  1  0
 29  8  1  0
 27 16  1  0
M  END
>  <molecule_chembl_id>  (1115) 
CHEMBL3309291

>  <canonical_smiles>  (1115) 
CC1(C)CC(=O)Nc2ccc(C(=O)NCc3ccc(C=CC(=O)NO)cc3)cc21

>  <pchembl_value_mean>  (1115) 
7.66

>  <document_chembl_id>  (1115) 
CHEMBL3351757

$$$$

     RDKit          2D

 39 43  0  0  0  0  0  0  0  0999 V2000
   10.7824  -15.8378    0.0000 C   0  0  0  0  0  0  0  0  0  0  0  0
    9.4121  -15.2277    0.0000 C   0  0  0  0  0  0  0  0  0  0  0  0
    9.2553  -13.7359    0.0000 C   0  0  0  0  0  0  0  0  0  0  0  0
   10.4688  -12.8543    0.0000 O   0  0  0  0  0  0  0  0  0  0  0  0
    7.8850  -13.1258    0.0000 C   0  0  0  0  0  0  0  0  0  0  0  0
    7.7282  -11.6340    0.0000 C   0  0  0  0  0  0  0  0  0  0  0  0
    6.3579  -11.0239    0.0000 C   0  0  0  0  0  0  0  0  0  0  0  0
    6.2011   -9.5322    0.0000 C   0  0  0  0  0  0  0  0  0  0  0  0
    4.8308   -8.9221    0.0000 C   0  0  0  0  0  0  0  0  0  0  0  0
    4.6740   -7.4303    0.0000 C   0  0  0  0  0  0  0  0  0  0  0  0
    5.8875   -6.5486    0.0000 N   0  0  0  0  0  0  0  0  0  0  0  0
    7.2578   -7.1587    0.0000 C   0  0  0  0  0  0  0  0  0  0  0  0
    7.4146   -8.6505    0.0000 O   0  0  0  0  0  0  0  0  0  0  0  0
    8.4713   -6.2770    0.0000 C   0  0  0  0  0  0  0  0  0  0  0  0
    9.0814   -4.9067    0.0000 C   0  0  0  0  0  0  0  0  0  0  0  0
    9.9631   -6.1202    0.0000 C   0  0  0  0  0  0  0  0  0  0  0  0
   10.1199   -7.6120    0.0000 C   0  0  0  0  0  0  0  0  0  0  0  0
   11.4902   -8.2221    0.0000 C   0  0  0  0  0  0  0  0  0  0  0  0
   12.7038   -7.3404    0.0000 C   0  0  0  0  0  0  0  0  0  0  0  0
   12.5470   -5.8487    0.0000 N   0  0  0  0  0  0  0  0  0  0  0  0
   13.7605   -4.9670    0.0000 C   0  0  0  0  0  0  0  0  0  0  0  0
   11.1766   -5.2386    0.0000 C   0  0  0  0  0  0  0  0  0  0  0  0
    3.3037   -6.8202    0.0000 C   0  0  0  0  0  0  0  0  0  0  0  0
    2.0046   -7.5702    0.0000 N   0  0  0  0  0  0  0  0  0  0  0  0
    0.8899   -6.5665    0.0000 C   0  0  0  0  0  0  0  0  0  0  0  0
    1.5000   -5.1962    0.0000 C   0  0  0  0  0  0  0  0  0  0  0  0
    0.7500   -3.8971    0.0000 C   0  0  0  0  0  0  0  0  0  0  0  0
    1.5000   -2.5981    0.0000 C   0  0  0  0  0  0  0  0  0  0  0  0
    0.7500   -1.2990    0.0000 C   0  0  0  0  0  0  0  0  0  0  0  0
    1.5000    0.0000    0.0000 C   0  0  0  0  0  0  0  0  0  0  0  0
    0.7500    1.2990    0.0000 C   0  0  0  0  0  0  0  0  0  0  0  0
   -0.7500    1.2990    0.0000 C   0  0  0  0  0  0  0  0  0  0  0  0
   -1.5000    0.0000    0.0000 C   0  0  0  0  0  0  0  0  0  0  0  0
   -0.7500   -1.2990    0.0000 C   0  0  0  0  0  0  0  0  0  0  0  0
   -1.5000   -2.5981    0.0000 N   0  0  0  0  0  0  0  0  0  0  0  0
   -0.7500   -3.8971    0.0000 C   0  0  0  0  0  0  0  0  0  0  0  0
   -1.5000   -5.1962    0.0000 O   0  0  0  0  0  0  0  0  0  0  0  0
   -3.0000   -5.1962    0.0000 C   0  0  0  0  0  0  0  0  0  0  0  0
    2.9918   -5.3529    0.0000 N   0  0  0  0  0  0  0  0  0  0  0  0
  1  2  1  0
  2  3  1  0
  3  4  2  0
  3  5  1  0
  5  6  1  0
  6  7  1  0
  7  8  1  0
  8  9  1  0
  9 10  1  0
 10 11  1  0
 11 12  1  0
 12 13  2  0
 12 14  1  0
 14 15  1  0
 15 16  1  0
 16 17  1  0
 17 18  1  0
 18 19  1  0
 19 20  1  0
 20 21  1  0
 20 22  1  0
 10 23  1  0
 23 24  2  0
 24 25  1  0
 25 26  2  0
 26 27  1  0
 27 28  2  0
 28 29  1  0
 29 30  2  0
 30 31  1  0
 31 32  2  0
 32 33  1  0
 33 34  2  0
 34 35  1  0
 35 36  2  0
 36 37  1  0
 37 38  1  0
 26 39  1  0
 16 14  1  0
 39 23  1  0
 22 16  1  0
 36 27  1  0
 34 29  1  0
M  END
>  <molecule_chembl_id>  (1116) 
CHEMBL4637397

>  <canonical_smiles>  (1116) 
CCC(=O)CCCCCC(NC(=O)C1CC12CCCN(C)C2)c1ncc(-c2cc3ccccc3nc2OC)[nH]1

>  <pchembl_value_mean>  (1116) 
7.67

>  <document_chembl_id>  (1116) 
CHEMBL4622849

$$$$

     RDKit          2D

 31 32  0  0  0  0  0  0  0  0999 V2000
    7.2990   -1.8481    0.0000 C   0  0  0  0  0  0  0  0  0  0  0  0
    6.0000   -2.5981    0.0000 C   0  0  0  0  0  0  0  0  0  0  0  0
    4.7010   -3.3481    0.0000 C   0  0  0  0  0  0  0  0  0  0  0  0
    6.7500   -3.8971    0.0000 C   0  0  0  0  0  0  0  0  0  0  0  0
    5.2500   -1.2990    0.0000 O   0  0  0  0  0  0  0  0  0  0  0  0
    3.7500   -1.2990    0.0000 C   0  0  0  0  0  0  0  0  0  0  0  0
    3.0000   -2.5981    0.0000 O   0  0  0  0  0  0  0  0  0  0  0  0
    3.0000    0.0000    0.0000 N   0  0  0  0  0  0  0  0  0  0  0  0
    1.5000    0.0000    0.0000 C   0  0  0  0  0  0  0  0  0  0  0  0
    0.7500   -1.2990    0.0000 C   0  0  0  0  0  0  0  0  0  0  0  0
   -0.7500   -1.2990    0.0000 C   0  0  0  0  0  0  0  0  0  0  0  0
   -1.5000    0.0000    0.0000 C   0  0  0  0  0  0  0  0  0  0  0  0
   -0.7500    1.2990    0.0000 C   0  0  0  0  0  0  0  0  0  0  0  0
   -1.5000    2.5981    0.0000 C   0  0  0  0  0  0  0  0  0  0  0  0
   -2.9918    2.7549    0.0000 C   0  0  0  0  0  0  0  0  0  0  0  0
   -3.3037    4.2221    0.0000 S   0  0  0  0  0  0  0  0  0  0  0  0
   -2.0046    4.9721    0.0000 C   0  0  0  0  0  0  0  0  0  0  0  0
   -1.8478    6.4639    0.0000 N   0  0  0  0  0  0  0  0  0  0  0  0
   -0.4775    7.0740    0.0000 C   0  0  0  0  0  0  0  0  0  0  0  0
    0.7360    6.1923    0.0000 O   0  0  0  0  0  0  0  0  0  0  0  0
   -0.3207    8.5658    0.0000 C   0  0  0  0  0  0  0  0  0  0  0  0
    1.0496    9.1759    0.0000 C   0  0  0  0  0  0  0  0  0  0  0  0
    1.2064   10.6676    0.0000 C   0  0  0  0  0  0  0  0  0  0  0  0
    2.5767   11.2778    0.0000 C   0  0  0  0  0  0  0  0  0  0  0  0
    2.7335   12.7695    0.0000 C   0  0  0  0  0  0  0  0  0  0  0  0
    4.1038   13.3796    0.0000 C   0  0  0  0  0  0  0  0  0  0  0  0
    5.3174   12.4980    0.0000 O   0  0  0  0  0  0  0  0  0  0  0  0
    4.2606   14.8714    0.0000 N   0  0  0  0  0  0  0  0  0  0  0  0
    5.6309   15.4815    0.0000 O   0  0  0  0  0  0  0  0  0  0  0  0
   -0.8899    3.9684    0.0000 N   0  0  0  0  0  0  0  0  0  0  0  0
    0.7500    1.2990    0.0000 C   0  0  0  0  0  0  0  0  0  0  0  0
  1  2  1  0
  2  3  1  0
  2  4  1  0
  2  5  1  0
  5  6  1  0
  6  7  2  0
  6  8  1  0
  8  9  1  0
  9 10  2  0
 10 11  1  0
 11 12  2  0
 12 13  1  0
 13 14  1  0
 14 15  2  0
 15 16  1  0
 16 17  1  0
 17 18  1  0
 18 19  1  0
 19 20  2  0
 19 21  1  0
 21 22  1  0
 22 23  1  0
 23 24  1  0
 24 25  1  0
 25 26  1  0
 26 27  2  0
 26 28  1  0
 28 29  1  0
 17 30  2  0
 13 31  2  0
 31  9  1  0
 30 14  1  0
M  END
>  <molecule_chembl_id>  (1117) 
CHEMBL4550526

>  <canonical_smiles>  (1117) 
CC(C)(C)OC(=O)Nc1cccc(-c2csc(NC(=O)CCCCCC(=O)NO)n2)c1

>  <pchembl_value_mean>  (1117) 
7.68

>  <document_chembl_id>  (1117) 
CHEMBL4400533

$$$$

     RDKit          2D

 25 27  0  0  0  0  0  0  0  0999 V2000
   -7.5000   -5.1962    0.0000 O   0  0  0  0  0  0  0  0  0  0  0  0
   -6.0000   -5.1962    0.0000 C   0  0  0  0  0  0  0  0  0  0  0  0
   -5.2500   -6.4952    0.0000 N   0  0  0  0  0  0  0  0  0  0  0  0
   -6.0000   -7.7942    0.0000 O   0  0  0  0  0  0  0  0  0  0  0  0
   -5.2500   -3.8971    0.0000 C   0  0  0  0  0  0  0  0  0  0  0  0
   -3.7500   -3.8971    0.0000 C   0  0  0  0  0  0  0  0  0  0  0  0
   -3.0000   -2.5981    0.0000 N   0  0  0  0  0  0  0  0  0  0  0  0
   -3.7500   -1.2990    0.0000 C   0  0  0  0  0  0  0  0  0  0  0  0
   -3.0000    0.0000    0.0000 N   0  0  0  0  0  0  0  0  0  0  0  0
   -3.7500    1.2990    0.0000 C   0  0  0  0  0  0  0  0  0  0  0  0
   -2.6009    2.2632    0.0000 C   0  0  0  0  0  0  0  0  0  0  0  0
   -1.1914    1.7502    0.0000 C   0  0  0  0  0  0  0  0  0  0  0  0
   -0.0423    2.7144    0.0000 C   0  0  0  0  0  0  0  0  0  0  0  0
   -0.3028    4.1916    0.0000 C   0  0  0  0  0  0  0  0  0  0  0  0
    0.8463    5.1558    0.0000 C   0  0  0  0  0  0  0  0  0  0  0  0
    1.9953    6.1199    0.0000 F   0  0  0  0  0  0  0  0  0  0  0  0
    1.8104    4.0067    0.0000 F   0  0  0  0  0  0  0  0  0  0  0  0
   -0.1179    6.3048    0.0000 F   0  0  0  0  0  0  0  0  0  0  0  0
   -1.7123    4.7046    0.0000 C   0  0  0  0  0  0  0  0  0  0  0  0
   -1.9728    6.1818    0.0000 F   0  0  0  0  0  0  0  0  0  0  0  0
   -2.8614    3.7404    0.0000 C   0  0  0  0  0  0  0  0  0  0  0  0
   -4.8991    2.2632    0.0000 C   0  0  0  0  0  0  0  0  0  0  0  0
   -5.1595    0.7860    0.0000 C   0  0  0  0  0  0  0  0  0  0  0  0
   -5.2500   -1.2990    0.0000 N   0  0  0  0  0  0  0  0  0  0  0  0
   -6.0000   -2.5981    0.0000 C   0  0  0  0  0  0  0  0  0  0  0  0
  1  2  2  0
  2  3  1  0
  3  4  1  0
  2  5  1  0
  5  6  2  0
  6  7  1  0
  7  8  2  0
  8  9  1  0
  9 10  1  0
 10 11  1  0
 11 12  2  0
 12 13  1  0
 13 14  2  0
 14 15  1  0
 15 16  1  0
 15 17  1  0
 15 18  1  0
 14 19  1  0
 19 20  1  0
 19 21  2  0
 10 22  1  0
 22 23  1  0
  8 24  1  0
 24 25  2  0
 25  5  1  0
 23 10  1  0
 21 11  1  0
M  END
>  <molecule_chembl_id>  (1118) 
CHEMBL3656006

>  <canonical_smiles>  (1118) 
O=C(NO)c1cnc(NC2(c3ccc(C(F)(F)F)c(F)c3)CC2)nc1

>  <pchembl_value_mean>  (1118) 
7.68

>  <document_chembl_id>  (1118) 
CHEMBL3639071

$$$$

     RDKit          2D

 32 33  0  0  0  0  0  0  0  0999 V2000
    7.2990   -1.8481    0.0000 C   0  0  0  0  0  0  0  0  0  0  0  0
    6.0000   -2.5981    0.0000 C   0  0  0  0  0  0  0  0  0  0  0  0
    4.7010   -3.3481    0.0000 C   0  0  0  0  0  0  0  0  0  0  0  0
    6.7500   -3.8971    0.0000 C   0  0  0  0  0  0  0  0  0  0  0  0
    5.2500   -1.2990    0.0000 O   0  0  0  0  0  0  0  0  0  0  0  0
    3.7500   -1.2990    0.0000 C   0  0  0  0  0  0  0  0  0  0  0  0
    3.0000   -2.5981    0.0000 O   0  0  0  0  0  0  0  0  0  0  0  0
    3.0000    0.0000    0.0000 N   0  0  0  0  0  0  0  0  0  0  0  0
    1.5000    0.0000    0.0000 C   0  0  0  0  0  0  0  0  0  0  0  0
    0.7500   -1.2990    0.0000 C   0  0  0  0  0  0  0  0  0  0  0  0
   -0.7500   -1.2990    0.0000 C   0  0  0  0  0  0  0  0  0  0  0  0
   -1.5000    0.0000    0.0000 C   0  0  0  0  0  0  0  0  0  0  0  0
   -0.7500    1.2990    0.0000 C   0  0  0  0  0  0  0  0  0  0  0  0
   -1.5000    2.5981    0.0000 C   0  0  0  0  0  0  0  0  0  0  0  0
   -2.9918    2.7549    0.0000 C   0  0  0  0  0  0  0  0  0  0  0  0
   -3.3037    4.2221    0.0000 S   0  0  0  0  0  0  0  0  0  0  0  0
   -2.0046    4.9721    0.0000 C   0  0  0  0  0  0  0  0  0  0  0  0
   -1.8478    6.4639    0.0000 N   0  0  0  0  0  0  0  0  0  0  0  0
   -0.4775    7.0740    0.0000 C   0  0  0  0  0  0  0  0  0  0  0  0
    0.7360    6.1923    0.0000 O   0  0  0  0  0  0  0  0  0  0  0  0
   -0.3207    8.5658    0.0000 C   0  0  0  0  0  0  0  0  0  0  0  0
    1.0496    9.1759    0.0000 C   0  0  0  0  0  0  0  0  0  0  0  0
    1.2064   10.6676    0.0000 C   0  0  0  0  0  0  0  0  0  0  0  0
    2.5767   11.2778    0.0000 C   0  0  0  0  0  0  0  0  0  0  0  0
    2.7335   12.7695    0.0000 C   0  0  0  0  0  0  0  0  0  0  0  0
    4.1038   13.3796    0.0000 C   0  0  0  0  0  0  0  0  0  0  0  0
    4.2606   14.8714    0.0000 C   0  0  0  0  0  0  0  0  0  0  0  0
    3.0471   15.7531    0.0000 O   0  0  0  0  0  0  0  0  0  0  0  0
    5.6309   15.4815    0.0000 N   0  0  0  0  0  0  0  0  0  0  0  0
    5.7877   16.9733    0.0000 O   0  0  0  0  0  0  0  0  0  0  0  0
   -0.8899    3.9684    0.0000 N   0  0  0  0  0  0  0  0  0  0  0  0
    0.7500    1.2990    0.0000 C   0  0  0  0  0  0  0  0  0  0  0  0
  1  2  1  0
  2  3  1  0
  2  4  1  0
  2  5  1  0
  5  6  1  0
  6  7  2  0
  6  8  1  0
  8  9  1  0
  9 10  2  0
 10 11  1  0
 11 12  2  0
 12 13  1  0
 13 14  1  0
 14 15  2  0
 15 16  1  0
 16 17  1  0
 17 18  1  0
 18 19  1  0
 19 20  2  0
 19 21  1  0
 21 22  1  0
 22 23  1  0
 23 24  1  0
 24 25  1  0
 25 26  1  0
 26 27  1  0
 27 28  2  0
 27 29  1  0
 29 30  1  0
 17 31  2  0
 13 32  2  0
 32  9  1  0
 31 14  1  0
M  END
>  <molecule_chembl_id>  (1119) 
CHEMBL2417782

>  <canonical_smiles>  (1119) 
CC(C)(C)OC(=O)Nc1cccc(-c2csc(NC(=O)CCCCCCC(=O)NO)n2)c1

>  <pchembl_value_mean>  (1119) 
7.68

>  <document_chembl_id>  (1119) 
CHEMBL2417402

$$$$

     RDKit          2D

 26 28  0  0  0  0  0  0  0  0999 V2000
    3.0613   -7.3456    0.0000 N   0  0  0  0  0  0  0  0  0  0  0  0
    1.8478   -6.4639    0.0000 C   0  0  0  0  0  0  0  0  0  0  0  0
    0.4775   -7.0740    0.0000 C   0  0  0  0  0  0  0  0  0  0  0  0
    0.3207   -8.5658    0.0000 C   0  0  0  0  0  0  0  0  0  0  0  0
   -1.0496   -9.1759    0.0000 C   0  0  0  0  0  0  0  0  0  0  0  0
   -1.2064  -10.6676    0.0000 C   0  0  0  0  0  0  0  0  0  0  0  0
   -2.5767  -11.2778    0.0000 C   0  0  0  0  0  0  0  0  0  0  0  0
   -2.7335  -12.7695    0.0000 C   0  0  0  0  0  0  0  0  0  0  0  0
   -1.5200  -13.6512    0.0000 O   0  0  0  0  0  0  0  0  0  0  0  0
   -4.1038  -13.3796    0.0000 C   0  0  0  0  0  0  0  0  0  0  0  0
   -4.4157  -14.8469    0.0000 C   0  0  0  0  0  0  0  0  0  0  0  0
   -5.9075  -15.0037    0.0000 C   0  0  0  0  0  0  0  0  0  0  0  0
   -6.5176  -13.6333    0.0000 O   0  0  0  0  0  0  0  0  0  0  0  0
   -5.4029  -12.6296    0.0000 N   0  0  0  0  0  0  0  0  0  0  0  0
    2.0046   -4.9721    0.0000 C   0  0  0  0  0  0  0  0  0  0  0  0
    0.8899   -3.9684    0.0000 C   0  0  0  0  0  0  0  0  0  0  0  0
    1.5000   -2.5981    0.0000 C   0  0  0  0  0  0  0  0  0  0  0  0
    0.7500   -1.2990    0.0000 C   0  0  0  0  0  0  0  0  0  0  0  0
    1.5000    0.0000    0.0000 C   0  0  0  0  0  0  0  0  0  0  0  0
    0.7500    1.2990    0.0000 C   0  0  0  0  0  0  0  0  0  0  0  0
   -0.7500    1.2990    0.0000 C   0  0  0  0  0  0  0  0  0  0  0  0
   -1.5000    0.0000    0.0000 C   0  0  0  0  0  0  0  0  0  0  0  0
   -0.7500   -1.2990    0.0000 C   0  0  0  0  0  0  0  0  0  0  0  0
   -1.5000   -2.5981    0.0000 F   0  0  0  0  0  0  0  0  0  0  0  0
    2.9918   -2.7549    0.0000 O   0  0  0  0  0  0  0  0  0  0  0  0
    3.3037   -4.2221    0.0000 N   0  0  0  0  0  0  0  0  0  0  0  0
  1  2  1  0
  2  3  1  0
  3  4  1  0
  4  5  1  0
  5  6  1  0
  6  7  1  0
  7  8  1  0
  8  9  2  0
  8 10  1  0
 10 11  1  0
 11 12  2  0
 12 13  1  0
 13 14  1  0
  2 15  1  0
 15 16  1  0
 16 17  2  0
 17 18  1  0
 18 19  2  0
 19 20  1  0
 20 21  2  0
 21 22  1  0
 22 23  2  0
 23 24  1  0
 17 25  1  0
 25 26  1  0
 14 10  2  0
 26 15  2  0
 23 18  1  0
M  END
>  <molecule_chembl_id>  (1120) 
CHEMBL4637836

>  <canonical_smiles>  (1120) 
NC(CCCCCC(=O)c1ccon1)c1cc(-c2ccccc2F)on1

>  <pchembl_value_mean>  (1120) 
7.68

>  <document_chembl_id>  (1120) 
CHEMBL4622967

$$$$

     RDKit          2D

 33 35  0  0  0  0  0  0  0  0999 V2000
   -4.0852   -9.6842    0.0000 C   0  0  0  0  0  0  0  0  0  0  0  0
   -2.6994   -9.1101    0.0000 C   0  0  0  0  0  0  0  0  0  0  0  0
   -1.5093  -10.0233    0.0000 C   0  0  0  0  0  0  0  0  0  0  0  0
   -2.5036   -7.6230    0.0000 C   0  0  0  0  0  0  0  0  0  0  0  0
   -1.0068   -7.5249    0.0000 N   0  0  0  0  0  0  0  0  0  0  0  0
    0.3385   -6.8614    0.0000 C   0  0  0  0  0  0  0  0  0  0  0  0
    1.2517   -8.0515    0.0000 O   0  0  0  0  0  0  0  0  0  0  0  0
    1.3275   -5.7337    0.0000 C   0  0  0  0  0  0  0  0  0  0  0  0
    2.6266   -6.4837    0.0000 C   0  0  0  0  0  0  0  0  0  0  0  0
    2.8024   -5.4603    0.0000 C   0  0  0  0  0  0  0  0  0  0  0  0
    2.9982   -3.9732    0.0000 S   0  0  0  0  0  0  0  0  0  0  0  0
    1.7116   -2.8165    0.0000 C   0  0  0  0  0  0  0  0  0  0  0  0
    1.8097   -4.3133    0.0000 N   0  0  0  0  0  0  0  0  0  0  0  0
    0.7500   -1.2990    0.0000 C   0  0  0  0  0  0  0  0  0  0  0  0
    1.5000    0.0000    0.0000 C   0  0  0  0  0  0  0  0  0  0  0  0
    0.7500    1.2990    0.0000 C   0  0  0  0  0  0  0  0  0  0  0  0
   -0.7500    1.2990    0.0000 N   0  0  0  0  0  0  0  0  0  0  0  0
   -1.5000    0.0000    0.0000 C   0  0  0  0  0  0  0  0  0  0  0  0
   -0.7500   -1.2990    0.0000 C   0  0  0  0  0  0  0  0  0  0  0  0
   -2.9968   -0.0981    0.0000 C   0  0  0  0  0  0  0  0  0  0  0  0
   -4.3421   -0.7615    0.0000 N   0  0  0  0  0  0  0  0  0  0  0  0
   -5.3311   -1.8893    0.0000 C   0  0  0  0  0  0  0  0  0  0  0  0
   -6.6302   -1.1393    0.0000 O   0  0  0  0  0  0  0  0  0  0  0  0
   -5.8133   -3.3097    0.0000 C   0  0  0  0  0  0  0  0  0  0  0  0
   -5.7152   -4.8065    0.0000 C   0  0  0  0  0  0  0  0  0  0  0  0
   -7.1641   -5.1947    0.0000 C   0  0  0  0  0  0  0  0  0  0  0  0
   -8.2247   -4.1340    0.0000 C   0  0  0  0  0  0  0  0  0  0  0  0
   -9.6736   -4.5223    0.0000 C   0  0  0  0  0  0  0  0  0  0  0  0
  -10.7343   -3.4616    0.0000 C   0  0  0  0  0  0  0  0  0  0  0  0
  -12.1832   -3.8498    0.0000 S   0  0  0  0  0  0  0  0  0  0  0  0
   -5.0517   -6.1518    0.0000 N   0  0  0  0  0  0  0  0  0  0  0  0
   -3.9240   -7.1408    0.0000 C   0  0  0  0  0  0  0  0  0  0  0  0
   -4.6740   -8.4398    0.0000 O   0  0  0  0  0  0  0  0  0  0  0  0
  1  2  1  0
  2  3  1  0
  2  4  1  0
  4  5  1  0
  5  6  1  0
  6  7  2  0
  6  8  1  0
  8  9  1  0
  8 10  1  0
 10 11  1  0
 11 12  1  0
 12 13  2  0
 12 14  1  0
 14 15  1  0
 15 16  2  0
 16 17  1  0
 17 18  2  0
 18 19  1  0
 18 20  1  0
 20 21  1  0
 21 22  1  0
 22 23  2  0
 22 24  1  0
 24 25  1  0
 25 26  1  0
 26 27  2  3
 27 28  1  0
 28 29  1  0
 29 30  1  0
 25 31  1  0
 31 32  1  0
 32 33  2  0
 32  4  1  0
 13  8  1  0
 19 14  2  0
M  END
>  <molecule_chembl_id>  (1121) 
CHEMBL3593415

>  <canonical_smiles>  (1121) 
CC(C)C1NC(=O)C2(C)CSC(=N2)c2ccnc(c2)CNC(=O)CC(C=CCCS)NC1=O

>  <pchembl_value_mean>  (1121) 
7.68

>  <document_chembl_id>  (1121) 
CHEMBL3593208

$$$$

     RDKit          2D

 26 27  0  0  0  0  0  0  0  0999 V2000
   12.0000   -7.7942    0.0000 O   0  0  0  0  0  0  0  0  0  0  0  0
   12.7500   -6.4952    0.0000 C   0  0  0  0  0  0  0  0  0  0  0  0
   12.0000   -5.1962    0.0000 C   0  0  0  0  0  0  0  0  0  0  0  0
   10.5000   -5.1962    0.0000 C   0  0  0  0  0  0  0  0  0  0  0  0
    9.7500   -3.8971    0.0000 C   0  0  0  0  0  0  0  0  0  0  0  0
    8.2500   -3.8971    0.0000 C   0  0  0  0  0  0  0  0  0  0  0  0
    7.5000   -2.5981    0.0000 C   0  0  0  0  0  0  0  0  0  0  0  0
    6.0000   -2.5981    0.0000 C   0  0  0  0  0  0  0  0  0  0  0  0
    5.2500   -3.8971    0.0000 O   0  0  0  0  0  0  0  0  0  0  0  0
    5.2500   -1.2990    0.0000 N   0  0  0  0  0  0  0  0  0  0  0  0
    3.7500   -1.2990    0.0000 N   0  0  0  0  0  0  0  0  0  0  0  0
    3.0000    0.0000    0.0000 C   0  0  0  0  0  0  0  0  0  0  0  0
    1.5000    0.0000    0.0000 C   0  0  0  0  0  0  0  0  0  0  0  0
    0.7500   -1.2990    0.0000 C   0  0  0  0  0  0  0  0  0  0  0  0
   -0.7500   -1.2990    0.0000 C   0  0  0  0  0  0  0  0  0  0  0  0
   -1.5000    0.0000    0.0000 C   0  0  0  0  0  0  0  0  0  0  0  0
   -3.0000    0.0000    0.0000 C   0  0  0  0  0  0  0  0  0  0  0  0
   -3.7500    1.2990    0.0000 C   0  0  0  0  0  0  0  0  0  0  0  0
   -5.2500    1.2990    0.0000 N   0  0  0  0  0  0  0  0  0  0  0  0
   -6.0000    0.0000    0.0000 C   0  0  0  0  0  0  0  0  0  0  0  0
   -5.2500   -1.2990    0.0000 N   0  0  0  0  0  0  0  0  0  0  0  0
   -3.7500   -1.2990    0.0000 C   0  0  0  0  0  0  0  0  0  0  0  0
   -0.7500    1.2990    0.0000 C   0  0  0  0  0  0  0  0  0  0  0  0
    0.7500    1.2990    0.0000 C   0  0  0  0  0  0  0  0  0  0  0  0
   14.2500   -6.4952    0.0000 N   0  0  0  0  0  0  0  0  0  0  0  0
   15.0000   -7.7942    0.0000 O   0  0  0  0  0  0  0  0  0  0  0  0
  1  2  2  0
  2  3  1  0
  3  4  1  0
  4  5  1  0
  5  6  1  0
  6  7  1  0
  7  8  1  0
  8  9  2  0
  8 10  1  0
 10 11  1  0
 11 12  2  3
 12 13  1  0
 13 14  2  0
 14 15  1  0
 15 16  2  0
 16 17  1  0
 17 18  2  0
 18 19  1  0
 19 20  2  0
 20 21  1  0
 21 22  2  0
 16 23  1  0
 23 24  2  0
  2 25  1  0
 25 26  1  0
 24 13  1  0
 22 17  1  0
M  END
>  <molecule_chembl_id>  (1122) 
CHEMBL3758492

>  <canonical_smiles>  (1122) 
O=C(CCCCCC(=O)NN=Cc1ccc(-c2cncnc2)cc1)NO

>  <pchembl_value_mean>  (1122) 
7.68

>  <document_chembl_id>  (1122) 
CHEMBL3758132

$$$$

     RDKit          2D

 23 26  0  0  0  0  0  0  0  0999 V2000
    5.0065  -11.2664    0.0000 O   0  0  0  0  0  0  0  0  0  0  0  0
    3.5293  -11.0059    0.0000 C   0  0  0  0  0  0  0  0  0  0  0  0
    2.5652  -12.1550    0.0000 N   0  0  0  0  0  0  0  0  0  0  0  0
    3.0782  -13.5645    0.0000 O   0  0  0  0  0  0  0  0  0  0  0  0
    3.0163   -9.5964    0.0000 C   0  0  0  0  0  0  0  0  0  0  0  0
    1.5391   -9.3359    0.0000 C   0  0  0  0  0  0  0  0  0  0  0  0
    1.0261   -7.9264    0.0000 N   0  0  0  0  0  0  0  0  0  0  0  0
    1.9902   -6.7773    0.0000 C   0  0  0  0  0  0  0  0  0  0  0  0
    1.4772   -5.3678    0.0000 N   0  0  0  0  0  0  0  0  0  0  0  0
   -0.0000   -5.1073    0.0000 C   0  0  0  0  0  0  0  0  0  0  0  0
   -0.0000   -3.6073    0.0000 C   0  0  0  0  0  0  0  0  0  0  0  0
    1.2135   -2.7256    0.0000 C   0  0  0  0  0  0  0  0  0  0  0  0
    0.7500   -1.2990    0.0000 C   0  0  0  0  0  0  0  0  0  0  0  0
    1.5000    0.0000    0.0000 C   0  0  0  0  0  0  0  0  0  0  0  0
    0.7500    1.2990    0.0000 C   0  0  0  0  0  0  0  0  0  0  0  0
   -0.7500    1.2990    0.0000 C   0  0  0  0  0  0  0  0  0  0  0  0
   -1.5000    0.0000    0.0000 C   0  0  0  0  0  0  0  0  0  0  0  0
   -0.7500   -1.2990    0.0000 C   0  0  0  0  0  0  0  0  0  0  0  0
   -1.2135   -2.7256    0.0000 S   0  0  0  0  0  0  0  0  0  0  0  0
   -0.5130   -6.5168    0.0000 C   0  0  0  0  0  0  0  0  0  0  0  0
   -1.4772   -5.3678    0.0000 C   0  0  0  0  0  0  0  0  0  0  0  0
    3.4675   -7.0378    0.0000 N   0  0  0  0  0  0  0  0  0  0  0  0
    3.9805   -8.4473    0.0000 C   0  0  0  0  0  0  0  0  0  0  0  0
  1  2  2  0
  2  3  1  0
  3  4  1  0
  2  5  1  0
  5  6  2  0
  6  7  1  0
  7  8  2  0
  8  9  1  0
  9 10  1  0
 10 11  1  0
 11 12  2  0
 12 13  1  0
 13 14  2  0
 14 15  1  0
 15 16  2  0
 16 17  1  0
 17 18  2  0
 18 19  1  0
 10 20  1  0
 20 21  1  0
  8 22  1  0
 22 23  2  0
 23  5  1  0
 21 10  1  0
 19 11  1  0
 18 13  1  0
M  END
>  <molecule_chembl_id>  (1123) 
CHEMBL3655979

>  <canonical_smiles>  (1123) 
O=C(NO)c1cnc(NC2(c3cc4ccccc4s3)CC2)nc1

>  <pchembl_value_mean>  (1123) 
7.68

>  <document_chembl_id>  (1123) 
CHEMBL3639071

$$$$

     RDKit          2D

 33 37  0  0  0  0  0  0  0  0999 V2000
    3.0000    0.0000    0.0000 C   0  0  0  0  0  0  0  0  0  0  0  0
    1.5000    0.0000    0.0000 C   0  0  0  0  0  0  0  0  0  0  0  0
    0.7500   -1.2990    0.0000 C   0  0  0  0  0  0  0  0  0  0  0  0
   -0.7500   -1.2990    0.0000 C   0  0  0  0  0  0  0  0  0  0  0  0
   -1.5000    0.0000    0.0000 C   0  0  0  0  0  0  0  0  0  0  0  0
   -0.7500    1.2990    0.0000 C   0  0  0  0  0  0  0  0  0  0  0  0
    0.7500    1.2990    0.0000 C   0  0  0  0  0  0  0  0  0  0  0  0
   -1.7537    2.4138    0.0000 C   0  0  0  0  0  0  0  0  0  0  0  0
   -1.4418    3.8810    0.0000 C   0  0  0  0  0  0  0  0  0  0  0  0
   -0.0715    4.4911    0.0000 N   0  0  0  0  0  0  0  0  0  0  0  0
   -0.2283    5.9829    0.0000 C   0  0  0  0  0  0  0  0  0  0  0  0
    0.7754    7.0976    0.0000 C   0  0  0  0  0  0  0  0  0  0  0  0
    0.3119    8.5242    0.0000 C   0  0  0  0  0  0  0  0  0  0  0  0
   -1.1554    8.8360    0.0000 C   0  0  0  0  0  0  0  0  0  0  0  0
   -2.1590    7.7213    0.0000 C   0  0  0  0  0  0  0  0  0  0  0  0
   -1.6955    6.2947    0.0000 C   0  0  0  0  0  0  0  0  0  0  0  0
   -2.4455    4.9957    0.0000 C   0  0  0  0  0  0  0  0  0  0  0  0
   -3.9373    4.8389    0.0000 N   0  0  0  0  0  0  0  0  0  0  0  0
   -4.8190    6.0524    0.0000 O   0  0  0  0  0  0  0  0  0  0  0  0
   -3.1240    1.8037    0.0000 C   0  0  0  0  0  0  0  0  0  0  0  0
   -4.4231    2.5537    0.0000 O   0  0  0  0  0  0  0  0  0  0  0  0
   -2.9672    0.3119    0.0000 N   0  0  0  0  0  0  0  0  0  0  0  0
   -4.0819   -0.6918    0.0000 C   0  0  0  0  0  0  0  0  0  0  0  0
   -5.5085   -0.2283    0.0000 C   0  0  0  0  0  0  0  0  0  0  0  0
   -5.8204    1.2389    0.0000 C   0  0  0  0  0  0  0  0  0  0  0  0
   -7.2470    1.7024    0.0000 C   0  0  0  0  0  0  0  0  0  0  0  0
   -8.3617    0.6987    0.0000 C   0  0  0  0  0  0  0  0  0  0  0  0
   -9.7883    1.1623    0.0000 C   0  0  0  0  0  0  0  0  0  0  0  0
  -10.9030    0.1586    0.0000 O   0  0  0  0  0  0  0  0  0  0  0  0
  -10.1001    2.6295    0.0000 N   0  0  0  0  0  0  0  0  0  0  0  0
  -11.5267    3.0930    0.0000 O   0  0  0  0  0  0  0  0  0  0  0  0
   -8.0498   -0.7685    0.0000 C   0  0  0  0  0  0  0  0  0  0  0  0
   -6.6232   -1.2320    0.0000 C   0  0  0  0  0  0  0  0  0  0  0  0
  1  2  1  0
  2  3  2  0
  3  4  1  0
  4  5  2  0
  5  6  1  0
  6  7  2  0
  6  8  1  0
  8  9  2  3
  9 10  1  0
 10 11  1  0
 11 12  2  0
 12 13  1  0
 13 14  2  0
 14 15  1  0
 15 16  2  0
 16 17  1  0
 17 18  2  3
 18 19  1  0
  8 20  1  0
 20 21  2  0
 20 22  1  0
 22 23  1  0
 23 24  1  0
 24 25  2  0
 25 26  1  0
 26 27  2  0
 27 28  1  0
 28 29  2  0
 28 30  1  0
 30 31  1  0
 27 32  1  0
 32 33  2  0
  7  2  1  0
 17  9  1  0
 33 24  1  0
 22  5  1  0
 16 11  1  0
M  END
>  <molecule_chembl_id>  (1124) 
CHEMBL4781628

>  <canonical_smiles>  (1124) 
Cc1ccc2c(c1)C(=C1Nc3ccccc3C1=NO)C(=O)N2Cc1ccc(C(=O)NO)cc1

>  <pchembl_value_mean>  (1124) 
7.68

>  <document_chembl_id>  (1124) 
CHEMBL4699494

$$$$

     RDKit          2D

 27 29  0  0  0  0  0  0  0  0999 V2000
   10.5000   -2.5981    0.0000 O   0  0  0  0  0  0  0  0  0  0  0  0
    9.7500   -3.8971    0.0000 C   0  0  0  0  0  0  0  0  0  0  0  0
    8.2500   -3.8971    0.0000 C   0  0  0  0  0  0  0  0  0  0  0  0
    7.5000   -2.5981    0.0000 C   0  0  0  0  0  0  0  0  0  0  0  0
    6.0000   -2.5981    0.0000 C   0  0  0  0  0  0  0  0  0  0  0  0
    5.2500   -1.2990    0.0000 C   0  0  0  0  0  0  0  0  0  0  0  0
    3.7500   -1.2990    0.0000 C   0  0  0  0  0  0  0  0  0  0  0  0
    3.0000   -2.5981    0.0000 O   0  0  0  0  0  0  0  0  0  0  0  0
    3.0000    0.0000    0.0000 N   0  0  0  0  0  0  0  0  0  0  0  0
    1.5000    0.0000    0.0000 C   0  0  0  0  0  0  0  0  0  0  0  0
    0.7500   -1.2990    0.0000 C   0  0  0  0  0  0  0  0  0  0  0  0
   -0.7500   -1.2990    0.0000 C   0  0  0  0  0  0  0  0  0  0  0  0
   -1.5000    0.0000    0.0000 C   0  0  0  0  0  0  0  0  0  0  0  0
   -0.7500    1.2990    0.0000 C   0  0  0  0  0  0  0  0  0  0  0  0
    0.7500    1.2990    0.0000 C   0  0  0  0  0  0  0  0  0  0  0  0
   -1.7537    2.4138    0.0000 C   0  0  0  0  0  0  0  0  0  0  0  0
   -1.4418    3.8810    0.0000 C   0  0  0  0  0  0  0  0  0  0  0  0
   -2.5565    4.8847    0.0000 C   0  0  0  0  0  0  0  0  0  0  0  0
   -4.0238    4.5728    0.0000 C   0  0  0  0  0  0  0  0  0  0  0  0
   -4.7738    5.8718    0.0000 C   0  0  0  0  0  0  0  0  0  0  0  0
   -3.7701    6.9866    0.0000 C   0  0  0  0  0  0  0  0  0  0  0  0
   -2.3998    6.3765    0.0000 N   0  0  0  0  0  0  0  0  0  0  0  0
   -3.1240    1.8037    0.0000 C   0  0  0  0  0  0  0  0  0  0  0  0
   -4.4231    2.5537    0.0000 O   0  0  0  0  0  0  0  0  0  0  0  0
   -2.9672    0.3119    0.0000 N   0  0  0  0  0  0  0  0  0  0  0  0
   10.5000   -5.1962    0.0000 N   0  0  0  0  0  0  0  0  0  0  0  0
   12.0000   -5.1962    0.0000 O   0  0  0  0  0  0  0  0  0  0  0  0
  1  2  2  0
  2  3  1  0
  3  4  1  0
  4  5  1  0
  5  6  1  0
  6  7  1  0
  7  8  2  0
  7  9  1  0
  9 10  1  0
 10 11  2  0
 11 12  1  0
 12 13  2  0
 13 14  1  0
 14 15  2  0
 14 16  1  0
 16 17  2  3
 17 18  1  0
 18 19  2  0
 19 20  1  0
 20 21  2  0
 21 22  1  0
 16 23  1  0
 23 24  2  0
 23 25  1  0
  2 26  1  0
 26 27  1  0
 15 10  1  0
 22 18  1  0
 25 13  1  0
M  END
>  <molecule_chembl_id>  (1125) 
CHEMBL3621296

>  <canonical_smiles>  (1125) 
O=C(CCCCC(=O)Nc1ccc2c(c1)C(=Cc1ccc[nH]1)C(=O)N2)NO

>  <pchembl_value_mean>  (1125) 
7.69

>  <document_chembl_id>  (1125) 
CHEMBL3621077

$$$$

     RDKit          2D

 24 25  0  0  0  0  0  0  0  0999 V2000
   12.7500   -3.8971    0.0000 O   0  0  0  0  0  0  0  0  0  0  0  0
   12.0000   -5.1962    0.0000 C   0  0  0  0  0  0  0  0  0  0  0  0
   10.5000   -5.1962    0.0000 C   0  0  0  0  0  0  0  0  0  0  0  0
    9.7500   -3.8971    0.0000 C   0  0  0  0  0  0  0  0  0  0  0  0
    8.2500   -3.8971    0.0000 C   0  0  0  0  0  0  0  0  0  0  0  0
    7.5000   -2.5981    0.0000 C   0  0  0  0  0  0  0  0  0  0  0  0
    6.0000   -2.5981    0.0000 C   0  0  0  0  0  0  0  0  0  0  0  0
    5.2500   -1.2990    0.0000 C   0  0  0  0  0  0  0  0  0  0  0  0
    3.7500   -1.2990    0.0000 N   0  0  0  0  0  0  0  0  0  0  0  0
    3.0000    0.0000    0.0000 C   0  0  0  0  0  0  0  0  0  0  0  0
    3.7500    1.2990    0.0000 O   0  0  0  0  0  0  0  0  0  0  0  0
    1.5000    0.0000    0.0000 C   0  0  0  0  0  0  0  0  0  0  0  0
    0.7500   -1.2990    0.0000 C   0  0  0  0  0  0  0  0  0  0  0  0
   -0.7500   -1.2990    0.0000 C   0  0  0  0  0  0  0  0  0  0  0  0
   -1.5000    0.0000    0.0000 C   0  0  0  0  0  0  0  0  0  0  0  0
   -0.7500    1.2990    0.0000 C   0  0  0  0  0  0  0  0  0  0  0  0
    0.7500    1.2990    0.0000 C   0  0  0  0  0  0  0  0  0  0  0  0
   -1.5000    2.5981    0.0000 C   0  0  0  0  0  0  0  0  0  0  0  0
   -3.0000    2.5981    0.0000 C   0  0  0  0  0  0  0  0  0  0  0  0
   -3.7500    1.2990    0.0000 C   0  0  0  0  0  0  0  0  0  0  0  0
   -5.2500    1.2990    0.0000 O   0  0  0  0  0  0  0  0  0  0  0  0
   -3.0000    0.0000    0.0000 N   0  0  0  0  0  0  0  0  0  0  0  0
   12.7500   -6.4952    0.0000 N   0  0  0  0  0  0  0  0  0  0  0  0
   14.2500   -6.4952    0.0000 O   0  0  0  0  0  0  0  0  0  0  0  0
  1  2  2  0
  2  3  1  0
  3  4  1  0
  4  5  1  0
  5  6  1  0
  6  7  1  0
  7  8  1  0
  8  9  1  0
  9 10  1  0
 10 11  2  0
 10 12  1  0
 12 13  2  0
 13 14  1  0
 14 15  2  0
 15 16  1  0
 16 17  2  0
 16 18  1  0
 18 19  1  0
 19 20  1  0
 20 21  2  0
 20 22  1  0
  2 23  1  0
 23 24  1  0
 17 12  1  0
 22 15  1  0
M  END
>  <molecule_chembl_id>  (1126) 
CHEMBL3311472

>  <canonical_smiles>  (1126) 
O=C(CCCCCCNC(=O)c1ccc2c(c1)CCC(=O)N2)NO

>  <pchembl_value_mean>  (1126) 
7.7

>  <document_chembl_id>  (1126) 
CHEMBL3351757

$$$$

     RDKit          2D

 27 28  0  0  0  0  0  0  0  0999 V2000
   -3.0000   -5.1962    0.0000 C   0  0  0  0  0  0  0  0  0  0  0  0
   -1.5000   -5.1962    0.0000 C   0  0  0  0  0  0  0  0  0  0  0  0
   -0.7500   -3.8971    0.0000 S   0  0  0  0  0  0  0  0  0  0  0  0
    0.7500   -3.8971    0.0000 C   0  0  0  0  0  0  0  0  0  0  0  0
    1.5000   -2.5981    0.0000 N   0  0  0  0  0  0  0  0  0  0  0  0
    0.7500   -1.2990    0.0000 C   0  0  0  0  0  0  0  0  0  0  0  0
    1.5000    0.0000    0.0000 C   0  0  0  0  0  0  0  0  0  0  0  0
    0.7500    1.2990    0.0000 C   0  0  0  0  0  0  0  0  0  0  0  0
   -0.7500    1.2990    0.0000 C   0  0  0  0  0  0  0  0  0  0  0  0
   -1.5000    0.0000    0.0000 C   0  0  0  0  0  0  0  0  0  0  0  0
   -0.7500   -1.2990    0.0000 C   0  0  0  0  0  0  0  0  0  0  0  0
    1.5000   -5.1962    0.0000 C   0  0  0  0  0  0  0  0  0  0  0  0
    0.7500   -6.4952    0.0000 C   0  0  0  0  0  0  0  0  0  0  0  0
   -0.0000   -7.7942    0.0000 N   0  0  0  0  0  0  0  0  0  0  0  0
    3.0000   -5.1962    0.0000 C   0  0  0  0  0  0  0  0  0  0  0  0
    3.7500   -3.8971    0.0000 O   0  0  0  0  0  0  0  0  0  0  0  0
    3.7500   -6.4952    0.0000 N   0  0  0  0  0  0  0  0  0  0  0  0
    5.2500   -6.4952    0.0000 N   0  0  0  0  0  0  0  0  0  0  0  0
    6.0000   -7.7942    0.0000 C   0  0  0  0  0  0  0  0  0  0  0  0
    7.5000   -7.7942    0.0000 C   0  0  0  0  0  0  0  0  0  0  0  0
    8.2500   -9.0933    0.0000 C   0  0  0  0  0  0  0  0  0  0  0  0
    9.7500   -9.0933    0.0000 C   0  0  0  0  0  0  0  0  0  0  0  0
   10.5000   -7.7942    0.0000 C   0  0  0  0  0  0  0  0  0  0  0  0
   12.0000   -7.7942    0.0000 Cl  0  0  0  0  0  0  0  0  0  0  0  0
    9.7500   -6.4952    0.0000 C   0  0  0  0  0  0  0  0  0  0  0  0
    8.2500   -6.4952    0.0000 C   0  0  0  0  0  0  0  0  0  0  0  0
    7.5000   -5.1962    0.0000 Cl  0  0  0  0  0  0  0  0  0  0  0  0
  1  2  1  0
  2  3  1  0
  3  4  1  0
  4  5  1  0
  5  6  1  0
  6  7  2  0
  7  8  1  0
  8  9  2  0
  9 10  1  0
 10 11  2  0
  4 12  2  3
 12 13  1  0
 13 14  3  0
 12 15  1  0
 15 16  2  0
 15 17  1  0
 17 18  1  0
 18 19  2  3
 19 20  1  0
 20 21  2  0
 21 22  1  0
 22 23  2  0
 23 24  1  0
 23 25  1  0
 25 26  2  0
 26 27  1  0
 11  6  1  0
 26 20  1  0
M  END
>  <molecule_chembl_id>  (1127) 
CHEMBL4171675

>  <canonical_smiles>  (1127) 
CCSC(Nc1ccccc1)=C(C#N)C(=O)NN=Cc1ccc(Cl)cc1Cl

>  <pchembl_value_mean>  (1127) 
7.7

>  <document_chembl_id>  (1127) 
CHEMBL4145553

$$$$

     RDKit          2D

 25 27  0  0  0  0  0  0  0  0999 V2000
    6.0000   -2.5981    0.0000 N   0  0  0  0  0  0  0  0  0  0  0  0
    5.2500   -1.2990    0.0000 C   0  0  0  0  0  0  0  0  0  0  0  0
    3.7500   -1.2990    0.0000 C   0  0  0  0  0  0  0  0  0  0  0  0
    3.0000    0.0000    0.0000 N   0  0  0  0  0  0  0  0  0  0  0  0
    1.5000    0.0000    0.0000 C   0  0  0  0  0  0  0  0  0  0  0  0
    0.7500   -1.2990    0.0000 C   0  0  0  0  0  0  0  0  0  0  0  0
   -0.7500   -1.2990    0.0000 C   0  0  0  0  0  0  0  0  0  0  0  0
   -1.5000    0.0000    0.0000 C   0  0  0  0  0  0  0  0  0  0  0  0
   -3.0000    0.0000    0.0000 C   0  0  0  0  0  0  0  0  0  0  0  0
   -3.7500   -1.2990    0.0000 O   0  0  0  0  0  0  0  0  0  0  0  0
   -3.7500    1.2990    0.0000 N   0  0  0  0  0  0  0  0  0  0  0  0
   -5.2500    1.2990    0.0000 C   0  0  0  0  0  0  0  0  0  0  0  0
   -6.0000    2.5981    0.0000 C   0  0  0  0  0  0  0  0  0  0  0  0
   -7.5000    2.5981    0.0000 C   0  0  0  0  0  0  0  0  0  0  0  0
   -8.2500    3.8971    0.0000 C   0  0  0  0  0  0  0  0  0  0  0  0
   -9.7418    4.0539    0.0000 C   0  0  0  0  0  0  0  0  0  0  0  0
  -10.0537    5.5211    0.0000 C   0  0  0  0  0  0  0  0  0  0  0  0
   -8.7546    6.2711    0.0000 C   0  0  0  0  0  0  0  0  0  0  0  0
   -7.6399    5.2674    0.0000 S   0  0  0  0  0  0  0  0  0  0  0  0
   -8.2500    1.2990    0.0000 C   0  0  0  0  0  0  0  0  0  0  0  0
   -7.5000    0.0000    0.0000 C   0  0  0  0  0  0  0  0  0  0  0  0
   -6.0000    0.0000    0.0000 C   0  0  0  0  0  0  0  0  0  0  0  0
   -5.2500   -1.2990    0.0000 N   0  0  0  0  0  0  0  0  0  0  0  0
   -0.7500    1.2990    0.0000 C   0  0  0  0  0  0  0  0  0  0  0  0
    0.7500    1.2990    0.0000 C   0  0  0  0  0  0  0  0  0  0  0  0
  1  2  2  0
  2  3  1  0
  3  4  2  3
  4  5  1  0
  5  6  2  0
  6  7  1  0
  7  8  2  0
  8  9  1  0
  9 10  2  0
  9 11  1  0
 11 12  1  0
 12 13  2  0
 13 14  1  0
 14 15  1  0
 15 16  2  0
 16 17  1  0
 17 18  2  0
 18 19  1  0
 14 20  2  0
 20 21  1  0
 21 22  2  0
 22 23  1  0
  8 24  1  0
 24 25  2  0
 25  5  1  0
 22 12  1  0
 19 15  1  0
M  END
>  <molecule_chembl_id>  (1128) 
CHEMBL1164671

>  <canonical_smiles>  (1128) 
N=CC=Nc1ccc(C(=O)Nc2cc(-c3cccs3)ccc2N)cc1

>  <pchembl_value_mean>  (1128) 
7.7

>  <document_chembl_id>  (1128) 
CHEMBL1165890

$$$$

     RDKit          2D

 32 34  0  0  0  0  0  0  0  0999 V2000
    1.5922    6.6948    0.0000 C   0  0  0  0  0  0  0  0  0  0  0  0
    0.1004    6.8516    0.0000 C   0  0  0  0  0  0  0  0  0  0  0  0
   -0.5097    8.2219    0.0000 C   0  0  0  0  0  0  0  0  0  0  0  0
   -0.7813    5.6380    0.0000 C   0  0  0  0  0  0  0  0  0  0  0  0
    0.2369    4.5365    0.0000 N   0  0  0  0  0  0  0  0  0  0  0  0
    0.7561    3.1293    0.0000 C   0  0  0  0  0  0  0  0  0  0  0  0
    2.2376    3.3639    0.0000 O   0  0  0  0  0  0  0  0  0  0  0  0
    0.3943    1.2135    0.0000 C   0  0  0  0  0  0  0  0  0  0  0  0
    0.4790    2.4256    0.0000 C   0  0  0  0  0  0  0  0  0  0  0  0
    1.2760    0.0000    0.0000 C   0  0  0  0  0  0  0  0  0  0  0  0
    0.3943   -1.2135    0.0000 S   0  0  0  0  0  0  0  0  0  0  0  0
   -1.0323   -0.7500    0.0000 C   0  0  0  0  0  0  0  0  0  0  0  0
   -1.0323    0.7500    0.0000 N   0  0  0  0  0  0  0  0  0  0  0  0
   -2.4396   -1.2692    0.0000 C   0  0  0  0  0  0  0  0  0  0  0  0
   -3.2233   -2.5481    0.0000 C   0  0  0  0  0  0  0  0  0  0  0  0
   -4.6819   -2.1980    0.0000 O   0  0  0  0  0  0  0  0  0  0  0  0
   -5.3006   -0.5823    0.0000 C   0  0  0  0  0  0  0  0  0  0  0  0
   -3.9384   -1.2103    0.0000 N   0  0  0  0  0  0  0  0  0  0  0  0
   -6.3188    0.5192    0.0000 C   0  0  0  0  0  0  0  0  0  0  0  0
   -6.8380    1.9265    0.0000 N   0  0  0  0  0  0  0  0  0  0  0  0
   -6.7791    3.4253    0.0000 C   0  0  0  0  0  0  0  0  0  0  0  0
   -8.2377    3.7755    0.0000 O   0  0  0  0  0  0  0  0  0  0  0  0
   -6.1511    4.7875    0.0000 C   0  0  0  0  0  0  0  0  0  0  0  0
   -5.0496    5.8057    0.0000 C   0  0  0  0  0  0  0  0  0  0  0  0
   -5.8334    7.0847    0.0000 C   0  0  0  0  0  0  0  0  0  0  0  0
   -5.1177    8.4029    0.0000 C   0  0  0  0  0  0  0  0  0  0  0  0
   -5.9014    9.6819    0.0000 C   0  0  0  0  0  0  0  0  0  0  0  0
   -5.1857   11.0001    0.0000 C   0  0  0  0  0  0  0  0  0  0  0  0
   -5.9694   12.2791    0.0000 S   0  0  0  0  0  0  0  0  0  0  0  0
   -3.6424    6.3249    0.0000 O   0  0  0  0  0  0  0  0  0  0  0  0
   -2.1435    6.2660    0.0000 C   0  0  0  0  0  0  0  0  0  0  0  0
   -1.7933    7.7246    0.0000 O   0  0  0  0  0  0  0  0  0  0  0  0
  1  2  1  0
  2  3  1  0
  2  4  1  0
  4  5  1  0
  5  6  1  0
  6  7  2  0
  6  8  1  0
  8  9  1  0
  8 10  1  0
 10 11  1  0
 11 12  1  0
 12 13  2  0
 12 14  1  0
 14 15  2  0
 15 16  1  0
 16 17  1  0
 17 18  2  0
 17 19  1  0
 19 20  1  0
 20 21  1  0
 21 22  2  0
 21 23  1  0
 23 24  1  0
 24 25  1  0
 25 26  2  3
 26 27  1  0
 27 28  1  0
 28 29  1  0
 24 30  1  0
 30 31  1  0
 31 32  2  0
 31  4  1  0
 13  8  1  0
 18 14  1  0
M  END
>  <molecule_chembl_id>  (1129) 
CHEMBL2436595

>  <canonical_smiles>  (1129) 
CC(C)C1NC(=O)C2(C)CSC(=N2)c2coc(n2)CNC(=O)CC(C=CCCS)OC1=O

>  <pchembl_value_mean>  (1129) 
7.7

>  <document_chembl_id>  (1129) 
CHEMBL2434914

$$$$

     RDKit          2D

 36 39  0  0  0  0  0  0  0  0999 V2000
   14.7990   -8.5442    0.0000 C   0  0  0  0  0  0  0  0  0  0  0  0
   13.2990   -8.5442    0.0000 C   0  0  0  0  0  0  0  0  0  0  0  0
   12.5490   -7.2452    0.0000 C   0  0  0  0  0  0  0  0  0  0  0  0
   13.2990   -5.9462    0.0000 O   0  0  0  0  0  0  0  0  0  0  0  0
   11.0490   -7.2452    0.0000 C   0  0  0  0  0  0  0  0  0  0  0  0
   10.2990   -5.9462    0.0000 C   0  0  0  0  0  0  0  0  0  0  0  0
    8.7990   -5.9462    0.0000 C   0  0  0  0  0  0  0  0  0  0  0  0
    8.0490   -4.6471    0.0000 C   0  0  0  0  0  0  0  0  0  0  0  0
    6.5490   -4.6471    0.0000 C   0  0  0  0  0  0  0  0  0  0  0  0
    5.7990   -3.3481    0.0000 C   0  0  0  0  0  0  0  0  0  0  0  0
    4.2990   -3.3481    0.0000 N   0  0  0  0  0  0  0  0  0  0  0  0
    3.5490   -2.0490    0.0000 C   0  0  0  0  0  0  0  0  0  0  0  0
    4.2990   -0.7500    0.0000 O   0  0  0  0  0  0  0  0  0  0  0  0
    2.0490   -2.0490    0.0000 C   0  0  0  0  0  0  0  0  0  0  0  0
    0.7500   -2.7990    0.0000 C   0  0  0  0  0  0  0  0  0  0  0  0
    0.7500   -1.2990    0.0000 C   0  0  0  0  0  0  0  0  0  0  0  0
    1.5000    0.0000    0.0000 C   0  0  0  0  0  0  0  0  0  0  0  0
    0.7500    1.2990    0.0000 C   0  0  0  0  0  0  0  0  0  0  0  0
   -0.7500    1.2990    0.0000 N   0  0  0  0  0  0  0  0  0  0  0  0
   -1.5000    2.5981    0.0000 C   0  0  0  0  0  0  0  0  0  0  0  0
   -1.5000    0.0000    0.0000 C   0  0  0  0  0  0  0  0  0  0  0  0
   -0.7500   -1.2990    0.0000 C   0  0  0  0  0  0  0  0  0  0  0  0
    6.5490   -2.0490    0.0000 C   0  0  0  0  0  0  0  0  0  0  0  0
    5.9389   -0.6787    0.0000 N   0  0  0  0  0  0  0  0  0  0  0  0
    7.0537    0.3250    0.0000 C   0  0  0  0  0  0  0  0  0  0  0  0
    6.8969    1.8168    0.0000 C   0  0  0  0  0  0  0  0  0  0  0  0
    8.1104    2.6984    0.0000 C   0  0  0  0  0  0  0  0  0  0  0  0
    7.9536    4.1902    0.0000 C   0  0  0  0  0  0  0  0  0  0  0  0
    6.5833    4.8003    0.0000 C   0  0  0  0  0  0  0  0  0  0  0  0
    6.4265    6.2921    0.0000 F   0  0  0  0  0  0  0  0  0  0  0  0
    5.3697    3.9186    0.0000 C   0  0  0  0  0  0  0  0  0  0  0  0
    5.5265    2.4269    0.0000 C   0  0  0  0  0  0  0  0  0  0  0  0
    8.3527   -0.4250    0.0000 N   0  0  0  0  0  0  0  0  0  0  0  0
    8.0408   -1.8922    0.0000 C   0  0  0  0  0  0  0  0  0  0  0  0
    9.0445   -3.0070    0.0000 C   0  0  0  0  0  0  0  0  0  0  0  0
   10.0482   -4.1217    0.0000 N   0  0  0  0  0  0  0  0  0  0  0  0
  1  2  1  0
  2  3  1  0
  3  4  2  0
  3  5  1  0
  5  6  1  0
  6  7  1  0
  7  8  1  0
  8  9  1  0
  9 10  1  0
 10 11  1  0
 11 12  1  0
 12 13  2  0
 12 14  1  0
 14 15  1  0
 15 16  1  0
 16 17  1  0
 17 18  1  0
 18 19  1  0
 19 20  1  0
 19 21  1  0
 21 22  1  0
 10 23  1  0
 23 24  1  0
 24 25  1  0
 25 26  1  0
 26 27  2  0
 27 28  1  0
 28 29  2  0
 29 30  1  0
 29 31  1  0
 31 32  2  0
 25 33  2  0
 33 34  1  0
 34 35  1  0
 35 36  3  0
 16 14  1  0
 34 23  2  0
 22 16  1  0
 32 26  1  0
M  END
>  <molecule_chembl_id>  (1130) 
CHEMBL4788911

>  <canonical_smiles>  (1130) 
CCC(=O)CCCCCC(NC(=O)C1CC12CCN(C)CC2)c1[nH]c(-c2ccc(F)cc2)nc1C#N

>  <pchembl_value_mean>  (1130) 
7.71

>  <document_chembl_id>  (1130) 
CHEMBL4665726

$$$$

     RDKit          2D

 33 37  0  0  0  0  0  0  0  0999 V2000
    3.7500   -3.8971    0.0000 N   0  0  0  0  0  0  0  0  0  0  0  0
    3.0000   -5.1962    0.0000 C   0  0  0  0  0  0  0  0  0  0  0  0
    3.7500   -6.4952    0.0000 C   0  0  0  0  0  0  0  0  0  0  0  0
    3.0000   -7.7942    0.0000 C   0  0  0  0  0  0  0  0  0  0  0  0
    1.5000   -7.7942    0.0000 C   0  0  0  0  0  0  0  0  0  0  0  0
    0.7500   -9.0933    0.0000 C   0  0  0  0  0  0  0  0  0  0  0  0
   -0.7500   -9.0933    0.0000 C   0  0  0  0  0  0  0  0  0  0  0  0
   -1.5000  -10.3923    0.0000 C   0  0  0  0  0  0  0  0  0  0  0  0
   -0.7500  -11.6913    0.0000 C   0  0  0  0  0  0  0  0  0  0  0  0
    0.7500  -11.6913    0.0000 C   0  0  0  0  0  0  0  0  0  0  0  0
    1.5000  -10.3923    0.0000 C   0  0  0  0  0  0  0  0  0  0  0  0
    0.7500   -6.4952    0.0000 C   0  0  0  0  0  0  0  0  0  0  0  0
    1.5000   -5.1962    0.0000 C   0  0  0  0  0  0  0  0  0  0  0  0
    0.7500   -3.8971    0.0000 N   0  0  0  0  0  0  0  0  0  0  0  0
    1.5000   -2.5981    0.0000 C   0  0  0  0  0  0  0  0  0  0  0  0
    3.0000   -2.5981    0.0000 O   0  0  0  0  0  0  0  0  0  0  0  0
    0.7500   -1.2990    0.0000 C   0  0  0  0  0  0  0  0  0  0  0  0
    1.5000    0.0000    0.0000 C   0  0  0  0  0  0  0  0  0  0  0  0
    0.7500    1.2990    0.0000 C   0  0  0  0  0  0  0  0  0  0  0  0
   -0.7500    1.2990    0.0000 C   0  0  0  0  0  0  0  0  0  0  0  0
   -1.5000    0.0000    0.0000 C   0  0  0  0  0  0  0  0  0  0  0  0
   -2.9672    0.3119    0.0000 C   0  0  0  0  0  0  0  0  0  0  0  0
   -3.1240    1.8037    0.0000 N   0  0  0  0  0  0  0  0  0  0  0  0
   -1.7537    2.4138    0.0000 N   0  0  0  0  0  0  0  0  0  0  0  0
   -1.4418    3.8810    0.0000 C   0  0  0  0  0  0  0  0  0  0  0  0
   -2.5565    4.8847    0.0000 C   0  0  0  0  0  0  0  0  0  0  0  0
   -2.2447    6.3519    0.0000 N   0  0  0  0  0  0  0  0  0  0  0  0
   -0.8181    6.8154    0.0000 C   0  0  0  0  0  0  0  0  0  0  0  0
   -0.5062    8.2826    0.0000 C   0  0  0  0  0  0  0  0  0  0  0  0
   -1.6209    9.2863    0.0000 O   0  0  0  0  0  0  0  0  0  0  0  0
   -3.0475    8.8228    0.0000 C   0  0  0  0  0  0  0  0  0  0  0  0
   -3.3594    7.3556    0.0000 C   0  0  0  0  0  0  0  0  0  0  0  0
   -0.7500   -1.2990    0.0000 C   0  0  0  0  0  0  0  0  0  0  0  0
  1  2  1  0
  2  3  2  0
  3  4  1  0
  4  5  2  0
  5  6  1  0
  6  7  2  0
  7  8  1  0
  8  9  2  0
  9 10  1  0
 10 11  2  0
  5 12  1  0
 12 13  2  0
 13 14  1  0
 14 15  1  0
 15 16  2  0
 15 17  1  0
 17 18  2  0
 18 19  1  0
 19 20  2  0
 20 21  1  0
 21 22  1  0
 22 23  2  0
 23 24  1  0
 24 25  1  0
 25 26  1  0
 26 27  1  0
 27 28  1  0
 28 29  1  0
 29 30  1  0
 30 31  1  0
 31 32  1  0
 21 33  2  0
 13  2  1  0
 33 17  1  0
 11  6  1  0
 24 20  1  0
 32 27  1  0
M  END
>  <molecule_chembl_id>  (1131) 
CHEMBL3922439

>  <canonical_smiles>  (1131) 
Nc1ccc(-c2ccccc2)cc1NC(=O)c1ccc2c(cnn2CCN2CCOCC2)c1

>  <pchembl_value_mean>  (1131) 
7.72

>  <document_chembl_id>  (1131) 
CHEMBL3886267

$$$$

     RDKit          2D

 22 24  0  0  0  0  0  0  0  0999 V2000
    3.7500    1.2990    0.0000 O   0  0  0  0  0  0  0  0  0  0  0  0
    3.0000    0.0000    0.0000 C   0  0  0  0  0  0  0  0  0  0  0  0
    3.7500   -1.2990    0.0000 N   0  0  0  0  0  0  0  0  0  0  0  0
    5.2500   -1.2990    0.0000 O   0  0  0  0  0  0  0  0  0  0  0  0
    1.5000    0.0000    0.0000 C   0  0  0  0  0  0  0  0  0  0  0  0
    0.7500   -1.2990    0.0000 C   0  0  0  0  0  0  0  0  0  0  0  0
   -0.7500   -1.2990    0.0000 N   0  0  0  0  0  0  0  0  0  0  0  0
   -1.5000    0.0000    0.0000 C   0  0  0  0  0  0  0  0  0  0  0  0
   -3.0000    0.0000    0.0000 N   0  0  0  0  0  0  0  0  0  0  0  0
   -3.7500    1.2990    0.0000 C   0  0  0  0  0  0  0  0  0  0  0  0
   -5.1595    0.7860    0.0000 C   0  0  0  0  0  0  0  0  0  0  0  0
   -5.4200   -0.6912    0.0000 C   0  0  0  0  0  0  0  0  0  0  0  0
   -6.8296   -1.2042    0.0000 C   0  0  0  0  0  0  0  0  0  0  0  0
   -7.9786   -0.2401    0.0000 C   0  0  0  0  0  0  0  0  0  0  0  0
   -9.3882   -0.7531    0.0000 F   0  0  0  0  0  0  0  0  0  0  0  0
   -7.7181    1.2372    0.0000 C   0  0  0  0  0  0  0  0  0  0  0  0
   -8.8672    2.2013    0.0000 Cl  0  0  0  0  0  0  0  0  0  0  0  0
   -6.3086    1.7502    0.0000 C   0  0  0  0  0  0  0  0  0  0  0  0
   -4.0105    2.7762    0.0000 C   0  0  0  0  0  0  0  0  0  0  0  0
   -2.6009    2.2632    0.0000 C   0  0  0  0  0  0  0  0  0  0  0  0
   -0.7500    1.2990    0.0000 N   0  0  0  0  0  0  0  0  0  0  0  0
    0.7500    1.2990    0.0000 C   0  0  0  0  0  0  0  0  0  0  0  0
  1  2  2  0
  2  3  1  0
  3  4  1  0
  2  5  1  0
  5  6  2  0
  6  7  1  0
  7  8  2  0
  8  9  1  0
  9 10  1  0
 10 11  1  0
 11 12  2  0
 12 13  1  0
 13 14  2  0
 14 15  1  0
 14 16  1  0
 16 17  1  0
 16 18  2  0
 10 19  1  0
 19 20  1  0
  8 21  1  0
 21 22  2  0
 22  5  1  0
 20 10  1  0
 18 11  1  0
M  END
>  <molecule_chembl_id>  (1132) 
CHEMBL3656000

>  <canonical_smiles>  (1132) 
O=C(NO)c1cnc(NC2(c3ccc(F)c(Cl)c3)CC2)nc1

>  <pchembl_value_mean>  (1132) 
7.72

>  <document_chembl_id>  (1132) 
CHEMBL3639071

$$$$

     RDKit          2D

 26 28  0  0  0  0  0  0  0  0999 V2000
  -12.9904   -9.6073    0.0000 C   0  0  0  0  0  0  0  0  0  0  0  0
  -11.6913  -10.3573    0.0000 C   0  0  0  0  0  0  0  0  0  0  0  0
  -10.3923   -9.6073    0.0000 C   0  0  0  0  0  0  0  0  0  0  0  0
   -9.0933  -10.3573    0.0000 N   0  0  0  0  0  0  0  0  0  0  0  0
   -7.7942   -9.6073    0.0000 N   0  0  0  0  0  0  0  0  0  0  0  0
   -6.4952  -10.3573    0.0000 C   0  0  0  0  0  0  0  0  0  0  0  0
   -6.4952  -11.8573    0.0000 O   0  0  0  0  0  0  0  0  0  0  0  0
   -5.1962   -9.6073    0.0000 C   0  0  0  0  0  0  0  0  0  0  0  0
   -5.1962   -8.1073    0.0000 C   0  0  0  0  0  0  0  0  0  0  0  0
   -3.8971   -7.3573    0.0000 C   0  0  0  0  0  0  0  0  0  0  0  0
   -2.5981   -8.1073    0.0000 C   0  0  0  0  0  0  0  0  0  0  0  0
   -1.2990   -7.3573    0.0000 C   0  0  0  0  0  0  0  0  0  0  0  0
   -1.2990   -5.8573    0.0000 N   0  0  0  0  0  0  0  0  0  0  0  0
   -0.0000   -5.1073    0.0000 C   0  0  0  0  0  0  0  0  0  0  0  0
    1.2990   -5.8573    0.0000 O   0  0  0  0  0  0  0  0  0  0  0  0
   -0.0000   -3.6073    0.0000 C   0  0  0  0  0  0  0  0  0  0  0  0
    1.2135   -2.7256    0.0000 C   0  0  0  0  0  0  0  0  0  0  0  0
    0.7500   -1.2990    0.0000 C   0  0  0  0  0  0  0  0  0  0  0  0
    1.5000    0.0000    0.0000 C   0  0  0  0  0  0  0  0  0  0  0  0
    0.7500    1.2990    0.0000 C   0  0  0  0  0  0  0  0  0  0  0  0
   -0.7500    1.2990    0.0000 C   0  0  0  0  0  0  0  0  0  0  0  0
   -1.5000    0.0000    0.0000 C   0  0  0  0  0  0  0  0  0  0  0  0
   -0.7500   -1.2990    0.0000 C   0  0  0  0  0  0  0  0  0  0  0  0
   -1.2135   -2.7256    0.0000 N   0  0  0  0  0  0  0  0  0  0  0  0
   -2.5981   -9.6073    0.0000 C   0  0  0  0  0  0  0  0  0  0  0  0
   -3.8971  -10.3573    0.0000 C   0  0  0  0  0  0  0  0  0  0  0  0
  1  2  1  0
  2  3  1  0
  3  4  1  0
  4  5  1  0
  5  6  1  0
  6  7  2  0
  6  8  1  0
  8  9  2  0
  9 10  1  0
 10 11  2  0
 11 12  1  0
 12 13  1  0
 13 14  1  0
 14 15  2  0
 14 16  1  0
 16 17  2  0
 17 18  1  0
 18 19  2  0
 19 20  1  0
 20 21  2  0
 21 22  1  0
 22 23  2  0
 23 24  1  0
 11 25  1  0
 25 26  2  0
 26  8  1  0
 24 16  1  0
 23 18  1  0
M  END
>  <molecule_chembl_id>  (1133) 
CHEMBL5083249

>  <canonical_smiles>  (1133) 
CCCNNC(=O)c1ccc(CNC(=O)c2cc3ccccc3[nH]2)cc1

>  <pchembl_value_mean>  (1133) 
7.73

>  <document_chembl_id>  (1133) 
CHEMBL5042504

$$$$

     RDKit          2D

 27 28  0  0  0  0  0  0  0  0999 V2000
    3.0000    0.0000    0.0000 C   0  0  0  0  0  0  0  0  0  0  0  0
    1.5000    0.0000    0.0000 C   0  0  0  0  0  0  0  0  0  0  0  0
    0.7500   -1.2990    0.0000 C   0  0  0  0  0  0  0  0  0  0  0  0
   -0.7500   -1.2990    0.0000 C   0  0  0  0  0  0  0  0  0  0  0  0
   -1.5000    0.0000    0.0000 C   0  0  0  0  0  0  0  0  0  0  0  0
   -0.7500    1.2990    0.0000 C   0  0  0  0  0  0  0  0  0  0  0  0
    0.7500    1.2990    0.0000 C   0  0  0  0  0  0  0  0  0  0  0  0
    1.5000    2.5981    0.0000 C   0  0  0  0  0  0  0  0  0  0  0  0
    3.0000    2.5981    0.0000 C   0  0  0  0  0  0  0  0  0  0  0  0
    3.7500    3.8971    0.0000 C   0  0  0  0  0  0  0  0  0  0  0  0
    3.0000    5.1962    0.0000 C   0  0  0  0  0  0  0  0  0  0  0  0
    3.7500    6.4952    0.0000 C   0  0  0  0  0  0  0  0  0  0  0  0
    5.2500    6.4952    0.0000 N   0  0  0  0  0  0  0  0  0  0  0  0
    6.0000    7.7942    0.0000 N   0  0  0  0  0  0  0  0  0  0  0  0
    7.5000    7.7942    0.0000 C   0  0  0  0  0  0  0  0  0  0  0  0
    8.2500    6.4952    0.0000 O   0  0  0  0  0  0  0  0  0  0  0  0
    8.2500    9.0933    0.0000 C   0  0  0  0  0  0  0  0  0  0  0  0
    9.7500    9.0933    0.0000 C   0  0  0  0  0  0  0  0  0  0  0  0
   10.5000   10.3923    0.0000 C   0  0  0  0  0  0  0  0  0  0  0  0
   12.0000   10.3923    0.0000 C   0  0  0  0  0  0  0  0  0  0  0  0
   12.7500   11.6913    0.0000 C   0  0  0  0  0  0  0  0  0  0  0  0
   14.2500   11.6913    0.0000 C   0  0  0  0  0  0  0  0  0  0  0  0
   15.0000   10.3923    0.0000 O   0  0  0  0  0  0  0  0  0  0  0  0
   15.0000   12.9904    0.0000 N   0  0  0  0  0  0  0  0  0  0  0  0
   16.5000   12.9904    0.0000 O   0  0  0  0  0  0  0  0  0  0  0  0
    1.5000    5.1962    0.0000 C   0  0  0  0  0  0  0  0  0  0  0  0
    0.7500    3.8971    0.0000 C   0  0  0  0  0  0  0  0  0  0  0  0
  1  2  1  0
  2  3  2  0
  3  4  1  0
  4  5  2  0
  5  6  1  0
  6  7  2  0
  7  8  1  0
  8  9  2  0
  9 10  1  0
 10 11  2  0
 11 12  1  0
 12 13  2  3
 13 14  1  0
 14 15  1  0
 15 16  2  0
 15 17  1  0
 17 18  1  0
 18 19  1  0
 19 20  1  0
 20 21  1  0
 21 22  1  0
 22 23  2  0
 22 24  1  0
 24 25  1  0
 11 26  1  0
 26 27  2  0
  7  2  1  0
 27  8  1  0
M  END
>  <molecule_chembl_id>  (1134) 
CHEMBL3758191

>  <canonical_smiles>  (1134) 
Cc1ccccc1-c1ccc(C=NNC(=O)CCCCCC(=O)NO)cc1

>  <pchembl_value_mean>  (1134) 
7.73

>  <document_chembl_id>  (1134) 
CHEMBL3758132

$$$$

     RDKit          2D

 34 36  0  0  0  0  0  0  0  0999 V2000
    1.5922    6.6948    0.0000 C   0  0  0  0  0  0  0  0  0  0  0  0
    0.1004    6.8516    0.0000 C   0  0  0  0  0  0  0  0  0  0  0  0
   -0.5097    8.2219    0.0000 C   0  0  0  0  0  0  0  0  0  0  0  0
   -0.7813    5.6380    0.0000 C   0  0  0  0  0  0  0  0  0  0  0  0
    0.2369    4.5365    0.0000 N   0  0  0  0  0  0  0  0  0  0  0  0
    0.7561    3.1293    0.0000 C   0  0  0  0  0  0  0  0  0  0  0  0
    2.2376    3.3639    0.0000 O   0  0  0  0  0  0  0  0  0  0  0  0
    0.3943    1.2135    0.0000 C   0  0  0  0  0  0  0  0  0  0  0  0
    0.4790    2.4256    0.0000 C   0  0  0  0  0  0  0  0  0  0  0  0
    1.2760    0.0000    0.0000 C   0  0  0  0  0  0  0  0  0  0  0  0
    0.3943   -1.2135    0.0000 S   0  0  0  0  0  0  0  0  0  0  0  0
   -1.0323   -0.7500    0.0000 C   0  0  0  0  0  0  0  0  0  0  0  0
   -1.0323    0.7500    0.0000 N   0  0  0  0  0  0  0  0  0  0  0  0
   -2.4396   -1.2692    0.0000 C   0  0  0  0  0  0  0  0  0  0  0  0
   -3.2233   -2.5481    0.0000 C   0  0  0  0  0  0  0  0  0  0  0  0
   -4.6819   -2.1980    0.0000 S   0  0  0  0  0  0  0  0  0  0  0  0
   -5.3006   -0.5823    0.0000 C   0  0  0  0  0  0  0  0  0  0  0  0
   -3.9384   -1.2103    0.0000 N   0  0  0  0  0  0  0  0  0  0  0  0
   -6.3188    0.5192    0.0000 C   0  0  0  0  0  0  0  0  0  0  0  0
   -6.8380    1.9265    0.0000 N   0  0  0  0  0  0  0  0  0  0  0  0
   -6.7791    3.4253    0.0000 C   0  0  0  0  0  0  0  0  0  0  0  0
   -8.2377    3.7755    0.0000 O   0  0  0  0  0  0  0  0  0  0  0  0
   -6.1511    4.7875    0.0000 C   0  0  0  0  0  0  0  0  0  0  0  0
   -5.0496    5.8057    0.0000 C   0  0  0  0  0  0  0  0  0  0  0  0
   -5.8334    7.0847    0.0000 C   0  0  0  0  0  0  0  0  0  0  0  0
   -5.1177    8.4029    0.0000 C   0  0  0  0  0  0  0  0  0  0  0  0
   -5.9014    9.6819    0.0000 C   0  0  0  0  0  0  0  0  0  0  0  0
   -4.6224   10.4656    0.0000 F   0  0  0  0  0  0  0  0  0  0  0  0
   -7.1804    8.8981    0.0000 F   0  0  0  0  0  0  0  0  0  0  0  0
   -6.6852   10.9608    0.0000 C   0  0  0  0  0  0  0  0  0  0  0  0
   -8.1846   10.9216    0.0000 S   0  0  0  0  0  0  0  0  0  0  0  0
   -3.6424    6.3249    0.0000 O   0  0  0  0  0  0  0  0  0  0  0  0
   -2.1435    6.2660    0.0000 C   0  0  0  0  0  0  0  0  0  0  0  0
   -1.7933    7.7246    0.0000 O   0  0  0  0  0  0  0  0  0  0  0  0
  1  2  1  0
  2  3  1  0
  2  4  1  0
  4  5  1  0
  5  6  1  0
  6  7  2  0
  6  8  1  0
  8  9  1  0
  8 10  1  0
 10 11  1  0
 11 12  1  0
 12 13  2  0
 12 14  1  0
 14 15  2  0
 15 16  1  0
 16 17  1  0
 17 18  2  0
 17 19  1  0
 19 20  1  0
 20 21  1  0
 21 22  2  0
 21 23  1  0
 23 24  1  0
 24 25  1  0
 25 26  2  3
 26 27  1  0
 27 28  1  0
 27 29  1  0
 27 30  1  0
 30 31  1  0
 24 32  1  0
 32 33  1  0
 33 34  2  0
 33  4  1  0
 13  8  1  0
 18 14  1  0
M  END
>  <molecule_chembl_id>  (1135) 
CHEMBL4467713

>  <canonical_smiles>  (1135) 
CC(C)C1NC(=O)C2(C)CSC(=N2)c2csc(n2)CNC(=O)CC(C=CC(F)(F)CS)OC1=O

>  <pchembl_value_mean>  (1135) 
7.73

>  <document_chembl_id>  (1135) 
CHEMBL4359920

$$$$

     RDKit          2D

 29 31  0  0  0  0  0  0  0  0999 V2000
   -3.7500   -3.8971    0.0000 C   0  0  0  0  0  0  0  0  0  0  0  0
   -3.0000   -5.1962    0.0000 O   0  0  0  0  0  0  0  0  0  0  0  0
   -1.5000   -5.1962    0.0000 C   0  0  0  0  0  0  0  0  0  0  0  0
   -0.7500   -3.8971    0.0000 C   0  0  0  0  0  0  0  0  0  0  0  0
    0.7500   -3.8971    0.0000 C   0  0  0  0  0  0  0  0  0  0  0  0
    1.5000   -2.5981    0.0000 O   0  0  0  0  0  0  0  0  0  0  0  0
    0.7500   -1.2990    0.0000 C   0  0  0  0  0  0  0  0  0  0  0  0
    1.5000    0.0000    0.0000 C   0  0  0  0  0  0  0  0  0  0  0  0
    0.7500    1.2990    0.0000 C   0  0  0  0  0  0  0  0  0  0  0  0
   -0.7500    1.2990    0.0000 C   0  0  0  0  0  0  0  0  0  0  0  0
   -1.5000    2.5981    0.0000 N   0  0  0  0  0  0  0  0  0  0  0  0
   -3.0000    2.5981    0.0000 C   0  0  0  0  0  0  0  0  0  0  0  0
   -3.7500    3.8971    0.0000 C   0  0  0  0  0  0  0  0  0  0  0  0
   -3.0000    5.1962    0.0000 C   0  0  0  0  0  0  0  0  0  0  0  0
   -3.7500    6.4952    0.0000 C   0  0  0  0  0  0  0  0  0  0  0  0
   -5.2500    6.4952    0.0000 O   0  0  0  0  0  0  0  0  0  0  0  0
   -3.0000    7.7942    0.0000 N   0  0  0  0  0  0  0  0  0  0  0  0
   -3.7500    9.0933    0.0000 O   0  0  0  0  0  0  0  0  0  0  0  0
   -3.7500    1.2990    0.0000 C   0  0  0  0  0  0  0  0  0  0  0  0
   -3.0000    0.0000    0.0000 C   0  0  0  0  0  0  0  0  0  0  0  0
   -1.5000    0.0000    0.0000 C   0  0  0  0  0  0  0  0  0  0  0  0
   -0.7500   -1.2990    0.0000 C   0  0  0  0  0  0  0  0  0  0  0  0
    1.5000   -5.1962    0.0000 C   0  0  0  0  0  0  0  0  0  0  0  0
    0.7500   -6.4952    0.0000 C   0  0  0  0  0  0  0  0  0  0  0  0
    1.5000   -7.7942    0.0000 O   0  0  0  0  0  0  0  0  0  0  0  0
    0.7500   -9.0933    0.0000 C   0  0  0  0  0  0  0  0  0  0  0  0
   -0.7500   -6.4952    0.0000 C   0  0  0  0  0  0  0  0  0  0  0  0
   -1.5000   -7.7942    0.0000 O   0  0  0  0  0  0  0  0  0  0  0  0
   -3.0000   -7.7942    0.0000 C   0  0  0  0  0  0  0  0  0  0  0  0
  1  2  1  0
  2  3  1  0
  3  4  2  0
  4  5  1  0
  5  6  1  0
  6  7  1  0
  7  8  2  0
  8  9  1  0
  9 10  2  0
 10 11  1  0
 11 12  2  0
 12 13  1  0
 13 14  2  3
 14 15  1  0
 15 16  2  0
 15 17  1  0
 17 18  1  0
 12 19  1  0
 19 20  2  0
 20 21  1  0
 21 22  2  0
  5 23  2  0
 23 24  1  0
 24 25  1  0
 25 26  1  0
 24 27  2  0
 27 28  1  0
 28 29  1  0
 27  3  1  0
 22  7  1  0
 21 10  1  0
M  END
>  <molecule_chembl_id>  (1136) 
CHEMBL4644775

>  <canonical_smiles>  (1136) 
COc1cc(Oc2ccc3nc(C=CC(=O)NO)ccc3c2)cc(OC)c1OC

>  <pchembl_value_mean>  (1136) 
7.73

>  <document_chembl_id>  (1136) 
CHEMBL4610053

$$$$

     RDKit          2D

 32 34  0  0  0  0  0  0  0  0999 V2000
   -4.2606  -14.8714    0.0000 C   0  0  0  0  0  0  0  0  0  0  0  0
   -4.1038  -13.3796    0.0000 C   0  0  0  0  0  0  0  0  0  0  0  0
   -2.7335  -12.7695    0.0000 C   0  0  0  0  0  0  0  0  0  0  0  0
   -1.5200  -13.6512    0.0000 O   0  0  0  0  0  0  0  0  0  0  0  0
   -2.5767  -11.2778    0.0000 C   0  0  0  0  0  0  0  0  0  0  0  0
   -1.2064  -10.6676    0.0000 C   0  0  0  0  0  0  0  0  0  0  0  0
   -1.0496   -9.1759    0.0000 C   0  0  0  0  0  0  0  0  0  0  0  0
    0.3207   -8.5658    0.0000 C   0  0  0  0  0  0  0  0  0  0  0  0
    0.4775   -7.0740    0.0000 C   0  0  0  0  0  0  0  0  0  0  0  0
    1.8478   -6.4639    0.0000 C   0  0  0  0  0  0  0  0  0  0  0  0
    3.0613   -7.3456    0.0000 N   0  0  0  0  0  0  0  0  0  0  0  0
    2.9046   -8.8373    0.0000 C   0  0  0  0  0  0  0  0  0  0  0  0
    1.5342   -9.4474    0.0000 O   0  0  0  0  0  0  0  0  0  0  0  0
    4.1181   -9.7190    0.0000 C   0  0  0  0  0  0  0  0  0  0  0  0
    4.3527  -11.2005    0.0000 C   0  0  0  0  0  0  0  0  0  0  0  0
    5.8343  -10.9659    0.0000 N   0  0  0  0  0  0  0  0  0  0  0  0
    7.0478  -11.8476    0.0000 C   0  0  0  0  0  0  0  0  0  0  0  0
    5.5996   -9.4844    0.0000 C   0  0  0  0  0  0  0  0  0  0  0  0
    2.0046   -4.9721    0.0000 C   0  0  0  0  0  0  0  0  0  0  0  0
    0.8899   -3.9684    0.0000 N   0  0  0  0  0  0  0  0  0  0  0  0
    1.5000   -2.5981    0.0000 C   0  0  0  0  0  0  0  0  0  0  0  0
    0.7500   -1.2990    0.0000 C   0  0  0  0  0  0  0  0  0  0  0  0
    1.5000    0.0000    0.0000 C   0  0  0  0  0  0  0  0  0  0  0  0
    0.7500    1.2990    0.0000 C   0  0  0  0  0  0  0  0  0  0  0  0
   -0.7500    1.2990    0.0000 C   0  0  0  0  0  0  0  0  0  0  0  0
   -1.5000    0.0000    0.0000 C   0  0  0  0  0  0  0  0  0  0  0  0
   -0.7500   -1.2990    0.0000 C   0  0  0  0  0  0  0  0  0  0  0  0
    2.9918   -2.7549    0.0000 N   0  0  0  0  0  0  0  0  0  0  0  0
    3.3037   -4.2221    0.0000 C   0  0  0  0  0  0  0  0  0  0  0  0
    4.6740   -4.8322    0.0000 C   0  0  0  0  0  0  0  0  0  0  0  0
    5.8875   -3.9505    0.0000 N   0  0  0  0  0  0  0  0  0  0  0  0
    4.8308   -6.3240    0.0000 O   0  0  0  0  0  0  0  0  0  0  0  0
  1  2  1  0
  2  3  1  0
  3  4  2  0
  3  5  1  0
  5  6  1  0
  6  7  1  0
  7  8  1  0
  8  9  1  0
  9 10  1  0
 10 11  1  0
 11 12  1  0
 12 13  2  0
 12 14  1  0
 14 15  1  0
 15 16  1  0
 16 17  1  0
 16 18  1  0
 10 19  1  0
 19 20  1  0
 20 21  1  0
 21 22  1  0
 22 23  2  0
 23 24  1  0
 24 25  2  0
 25 26  1  0
 26 27  2  0
 21 28  2  0
 28 29  1  0
 29 30  1  0
 30 31  1  0
 30 32  2  0
 18 14  1  0
 29 19  2  0
 27 22  1  0
M  END
>  <molecule_chembl_id>  (1137) 
CHEMBL4776685

>  <canonical_smiles>  (1137) 
CCC(=O)CCCCCC(NC(=O)C1CN(C)C1)c1[nH]c(-c2ccccc2)nc1C(N)=O

>  <pchembl_value_mean>  (1137) 
7.745

>  <document_chembl_id>  (1137) 
CHEMBL4665726

$$$$

     RDKit          2D

 38 41  0  0  0  0  0  0  0  0999 V2000
   14.7990   -8.5442    0.0000 C   0  0  0  0  0  0  0  0  0  0  0  0
   13.2990   -8.5442    0.0000 C   0  0  0  0  0  0  0  0  0  0  0  0
   12.5490   -7.2452    0.0000 C   0  0  0  0  0  0  0  0  0  0  0  0
   13.2990   -5.9462    0.0000 O   0  0  0  0  0  0  0  0  0  0  0  0
   11.0490   -7.2452    0.0000 C   0  0  0  0  0  0  0  0  0  0  0  0
   10.2990   -5.9462    0.0000 C   0  0  0  0  0  0  0  0  0  0  0  0
    8.7990   -5.9462    0.0000 C   0  0  0  0  0  0  0  0  0  0  0  0
    8.0490   -4.6471    0.0000 C   0  0  0  0  0  0  0  0  0  0  0  0
    6.5490   -4.6471    0.0000 C   0  0  0  0  0  0  0  0  0  0  0  0
    5.7990   -3.3481    0.0000 C   0  0  0  0  0  0  0  0  0  0  0  0
    4.2990   -3.3481    0.0000 N   0  0  0  0  0  0  0  0  0  0  0  0
    3.5490   -2.0490    0.0000 C   0  0  0  0  0  0  0  0  0  0  0  0
    4.2990   -0.7500    0.0000 O   0  0  0  0  0  0  0  0  0  0  0  0
    2.0490   -2.0490    0.0000 C   0  0  0  0  0  0  0  0  0  0  0  0
    0.7500   -2.7990    0.0000 C   0  0  0  0  0  0  0  0  0  0  0  0
    0.7500   -1.2990    0.0000 C   0  0  0  0  0  0  0  0  0  0  0  0
    1.5000    0.0000    0.0000 C   0  0  0  0  0  0  0  0  0  0  0  0
    0.7500    1.2990    0.0000 C   0  0  0  0  0  0  0  0  0  0  0  0
   -0.7500    1.2990    0.0000 N   0  0  0  0  0  0  0  0  0  0  0  0
   -1.5000    2.5981    0.0000 C   0  0  0  0  0  0  0  0  0  0  0  0
   -0.7500    3.8971    0.0000 C   0  0  0  0  0  0  0  0  0  0  0  0
   -1.5000    0.0000    0.0000 C   0  0  0  0  0  0  0  0  0  0  0  0
   -0.7500   -1.2990    0.0000 C   0  0  0  0  0  0  0  0  0  0  0  0
    6.5490   -2.0490    0.0000 C   0  0  0  0  0  0  0  0  0  0  0  0
    5.9389   -0.6787    0.0000 N   0  0  0  0  0  0  0  0  0  0  0  0
    7.0537    0.3250    0.0000 C   0  0  0  0  0  0  0  0  0  0  0  0
    8.3527   -0.4250    0.0000 C   0  0  0  0  0  0  0  0  0  0  0  0
    9.7230    0.1851    0.0000 C   0  0  0  0  0  0  0  0  0  0  0  0
   10.9365   -0.6966    0.0000 C   0  0  0  0  0  0  0  0  0  0  0  0
   12.3069   -0.0865    0.0000 C   0  0  0  0  0  0  0  0  0  0  0  0
   12.4636    1.4053    0.0000 C   0  0  0  0  0  0  0  0  0  0  0  0
   13.8340    2.0154    0.0000 O   0  0  0  0  0  0  0  0  0  0  0  0
   15.0475    1.1337    0.0000 C   0  0  0  0  0  0  0  0  0  0  0  0
   11.2501    2.2870    0.0000 N   0  0  0  0  0  0  0  0  0  0  0  0
    9.8798    1.6769    0.0000 C   0  0  0  0  0  0  0  0  0  0  0  0
    8.6663    2.5585    0.0000 O   0  0  0  0  0  0  0  0  0  0  0  0
    8.8231    4.0503    0.0000 C   0  0  0  0  0  0  0  0  0  0  0  0
    8.0408   -1.8922    0.0000 N   0  0  0  0  0  0  0  0  0  0  0  0
  1  2  1  0
  2  3  1  0
  3  4  2  0
  3  5  1  0
  5  6  1  0
  6  7  1  0
  7  8  1  0
  8  9  1  0
  9 10  1  0
 10 11  1  0
 11 12  1  0
 12 13  2  0
 12 14  1  0
 14 15  1  0
 15 16  1  0
 16 17  1  0
 17 18  1  0
 18 19  1  0
 19 20  1  0
 20 21  1  0
 19 22  1  0
 22 23  1  0
 10 24  1  0
 24 25  2  0
 25 26  1  0
 26 27  2  0
 27 28  1  0
 28 29  2  0
 29 30  1  0
 30 31  2  0
 31 32  1  0
 32 33  1  0
 31 34  1  0
 34 35  2  0
 35 36  1  0
 36 37  1  0
 27 38  1  0
 16 14  1  0
 38 24  1  0
 23 16  1  0
 35 28  1  0
M  END
>  <molecule_chembl_id>  (1138) 
CHEMBL4754365

>  <canonical_smiles>  (1138) 
CCC(=O)CCCCCC(NC(=O)C1CC12CCN(CC)CC2)c1ncc(-c2ccc(OC)nc2OC)[nH]1

>  <pchembl_value_mean>  (1138) 
7.75

>  <document_chembl_id>  (1138) 
CHEMBL4680369

$$$$

     RDKit          2D

 41 45  0  0  0  0  0  0  0  0999 V2000
   10.7824  -15.8378    0.0000 C   0  0  0  0  0  0  0  0  0  0  0  0
    9.4121  -15.2277    0.0000 C   0  0  0  0  0  0  0  0  0  0  0  0
    9.2553  -13.7359    0.0000 C   0  0  0  0  0  0  0  0  0  0  0  0
   10.4688  -12.8543    0.0000 O   0  0  0  0  0  0  0  0  0  0  0  0
    7.8850  -13.1258    0.0000 C   0  0  0  0  0  0  0  0  0  0  0  0
    7.7282  -11.6340    0.0000 C   0  0  0  0  0  0  0  0  0  0  0  0
    6.3579  -11.0239    0.0000 C   0  0  0  0  0  0  0  0  0  0  0  0
    6.2011   -9.5322    0.0000 C   0  0  0  0  0  0  0  0  0  0  0  0
    4.8308   -8.9221    0.0000 C   0  0  0  0  0  0  0  0  0  0  0  0
    4.6740   -7.4303    0.0000 C   0  0  0  0  0  0  0  0  0  0  0  0
    5.8875   -6.5486    0.0000 N   0  0  0  0  0  0  0  0  0  0  0  0
    7.2578   -7.1587    0.0000 C   0  0  0  0  0  0  0  0  0  0  0  0
    7.4146   -8.6505    0.0000 O   0  0  0  0  0  0  0  0  0  0  0  0
    8.4713   -6.2770    0.0000 C   0  0  0  0  0  0  0  0  0  0  0  0
    9.0814   -4.9067    0.0000 C   0  0  0  0  0  0  0  0  0  0  0  0
    9.9631   -6.1202    0.0000 C   0  0  0  0  0  0  0  0  0  0  0  0
   10.1199   -7.6120    0.0000 C   0  0  0  0  0  0  0  0  0  0  0  0
   11.4902   -8.2221    0.0000 C   0  0  0  0  0  0  0  0  0  0  0  0
   12.7038   -7.3404    0.0000 N   0  0  0  0  0  0  0  0  0  0  0  0
   14.0741   -7.9505    0.0000 C   0  0  0  0  0  0  0  0  0  0  0  0
   14.2309   -9.4423    0.0000 C   0  0  0  0  0  0  0  0  0  0  0  0
   15.2876   -7.0689    0.0000 C   0  0  0  0  0  0  0  0  0  0  0  0
   12.5470   -5.8487    0.0000 C   0  0  0  0  0  0  0  0  0  0  0  0
   11.1766   -5.2386    0.0000 C   0  0  0  0  0  0  0  0  0  0  0  0
    3.3037   -6.8202    0.0000 C   0  0  0  0  0  0  0  0  0  0  0  0
    2.0046   -7.5702    0.0000 N   0  0  0  0  0  0  0  0  0  0  0  0
    0.8899   -6.5665    0.0000 C   0  0  0  0  0  0  0  0  0  0  0  0
    1.5000   -5.1962    0.0000 C   0  0  0  0  0  0  0  0  0  0  0  0
    0.7500   -3.8971    0.0000 C   0  0  0  0  0  0  0  0  0  0  0  0
    1.5000   -2.5981    0.0000 C   0  0  0  0  0  0  0  0  0  0  0  0
    0.7500   -1.2990    0.0000 C   0  0  0  0  0  0  0  0  0  0  0  0
    1.5000    0.0000    0.0000 C   0  0  0  0  0  0  0  0  0  0  0  0
    0.7500    1.2990    0.0000 C   0  0  0  0  0  0  0  0  0  0  0  0
   -0.7500    1.2990    0.0000 C   0  0  0  0  0  0  0  0  0  0  0  0
   -1.5000    0.0000    0.0000 C   0  0  0  0  0  0  0  0  0  0  0  0
   -0.7500   -1.2990    0.0000 C   0  0  0  0  0  0  0  0  0  0  0  0
   -1.5000   -2.5981    0.0000 N   0  0  0  0  0  0  0  0  0  0  0  0
   -0.7500   -3.8971    0.0000 C   0  0  0  0  0  0  0  0  0  0  0  0
   -1.5000   -5.1962    0.0000 O   0  0  0  0  0  0  0  0  0  0  0  0
   -3.0000   -5.1962    0.0000 C   0  0  0  0  0  0  0  0  0  0  0  0
    2.9918   -5.3529    0.0000 O   0  0  0  0  0  0  0  0  0  0  0  0
  1  2  1  0
  2  3  1  0
  3  4  2  0
  3  5  1  0
  5  6  1  0
  6  7  1  0
  7  8  1  0
  8  9  1  0
  9 10  1  0
 10 11  1  0
 11 12  1  0
 12 13  2  0
 12 14  1  0
 14 15  1  0
 15 16  1  0
 16 17  1  0
 17 18  1  0
 18 19  1  0
 19 20  1  0
 20 21  1  0
 20 22  1  0
 19 23  1  0
 23 24  1  0
 10 25  1  0
 25 26  2  0
 26 27  1  0
 27 28  2  0
 28 29  1  0
 29 30  2  0
 30 31  1  0
 31 32  2  0
 32 33  1  0
 33 34  2  0
 34 35  1  0
 35 36  2  0
 36 37  1  0
 37 38  2  0
 38 39  1  0
 39 40  1  0
 28 41  1  0
 16 14  1  0
 41 25  1  0
 24 16  1  0
 38 29  1  0
 36 31  1  0
M  END
>  <molecule_chembl_id>  (1139) 
CHEMBL4649628

>  <canonical_smiles>  (1139) 
CCC(=O)CCCCCC(NC(=O)C1CC12CCN(C(C)C)CC2)c1ncc(-c2cc3ccccc3nc2OC)o1

>  <pchembl_value_mean>  (1139) 
7.75

>  <document_chembl_id>  (1139) 
CHEMBL4622849

$$$$

     RDKit          2D

 21 23  0  0  0  0  0  0  0  0999 V2000
    3.7500    1.2990    0.0000 O   0  0  0  0  0  0  0  0  0  0  0  0
    3.0000    0.0000    0.0000 C   0  0  0  0  0  0  0  0  0  0  0  0
    3.7500   -1.2990    0.0000 N   0  0  0  0  0  0  0  0  0  0  0  0
    5.2500   -1.2990    0.0000 O   0  0  0  0  0  0  0  0  0  0  0  0
    1.5000    0.0000    0.0000 C   0  0  0  0  0  0  0  0  0  0  0  0
    0.7500   -1.2990    0.0000 C   0  0  0  0  0  0  0  0  0  0  0  0
   -0.7500   -1.2990    0.0000 N   0  0  0  0  0  0  0  0  0  0  0  0
   -1.5000    0.0000    0.0000 C   0  0  0  0  0  0  0  0  0  0  0  0
   -3.0000    0.0000    0.0000 N   0  0  0  0  0  0  0  0  0  0  0  0
   -3.7500    1.2990    0.0000 C   0  0  0  0  0  0  0  0  0  0  0  0
   -5.1595    0.7860    0.0000 C   0  0  0  0  0  0  0  0  0  0  0  0
   -5.4200   -0.6912    0.0000 C   0  0  0  0  0  0  0  0  0  0  0  0
   -6.8296   -1.2042    0.0000 C   0  0  0  0  0  0  0  0  0  0  0  0
   -7.9786   -0.2401    0.0000 C   0  0  0  0  0  0  0  0  0  0  0  0
   -7.7181    1.2372    0.0000 C   0  0  0  0  0  0  0  0  0  0  0  0
   -6.3086    1.7502    0.0000 C   0  0  0  0  0  0  0  0  0  0  0  0
   -6.0481    3.2274    0.0000 F   0  0  0  0  0  0  0  0  0  0  0  0
   -4.0105    2.7762    0.0000 C   0  0  0  0  0  0  0  0  0  0  0  0
   -2.6009    2.2632    0.0000 C   0  0  0  0  0  0  0  0  0  0  0  0
   -0.7500    1.2990    0.0000 N   0  0  0  0  0  0  0  0  0  0  0  0
    0.7500    1.2990    0.0000 C   0  0  0  0  0  0  0  0  0  0  0  0
  1  2  2  0
  2  3  1  0
  3  4  1  0
  2  5  1  0
  5  6  2  0
  6  7  1  0
  7  8  2  0
  8  9  1  0
  9 10  1  0
 10 11  1  0
 11 12  2  0
 12 13  1  0
 13 14  2  0
 14 15  1  0
 15 16  2  0
 16 17  1  0
 10 18  1  0
 18 19  1  0
  8 20  1  0
 20 21  2  0
 21  5  1  0
 19 10  1  0
 16 11  1  0
M  END
>  <molecule_chembl_id>  (1140) 
CHEMBL3655959

>  <canonical_smiles>  (1140) 
O=C(NO)c1cnc(NC2(c3ccccc3F)CC2)nc1

>  <pchembl_value_mean>  (1140) 
7.75

>  <document_chembl_id>  (1140) 
CHEMBL3639071

$$$$

     RDKit          2D

 24 25  0  0  0  0  0  0  0  0999 V2000
   12.7500   -3.8971    0.0000 O   0  0  0  0  0  0  0  0  0  0  0  0
   12.0000   -5.1962    0.0000 C   0  0  0  0  0  0  0  0  0  0  0  0
   10.5000   -5.1962    0.0000 C   0  0  0  0  0  0  0  0  0  0  0  0
    9.7500   -3.8971    0.0000 C   0  0  0  0  0  0  0  0  0  0  0  0
    8.2500   -3.8971    0.0000 C   0  0  0  0  0  0  0  0  0  0  0  0
    7.5000   -2.5981    0.0000 C   0  0  0  0  0  0  0  0  0  0  0  0
    6.0000   -2.5981    0.0000 C   0  0  0  0  0  0  0  0  0  0  0  0
    5.2500   -1.2990    0.0000 C   0  0  0  0  0  0  0  0  0  0  0  0
    3.7500   -1.2990    0.0000 C   0  0  0  0  0  0  0  0  0  0  0  0
    3.0000   -2.5981    0.0000 O   0  0  0  0  0  0  0  0  0  0  0  0
    3.0000    0.0000    0.0000 N   0  0  0  0  0  0  0  0  0  0  0  0
    1.5000    0.0000    0.0000 C   0  0  0  0  0  0  0  0  0  0  0  0
    0.7500   -1.2990    0.0000 C   0  0  0  0  0  0  0  0  0  0  0  0
   -0.7500   -1.2990    0.0000 C   0  0  0  0  0  0  0  0  0  0  0  0
   -1.5000    0.0000    0.0000 C   0  0  0  0  0  0  0  0  0  0  0  0
   -0.7500    1.2990    0.0000 C   0  0  0  0  0  0  0  0  0  0  0  0
    0.7500    1.2990    0.0000 C   0  0  0  0  0  0  0  0  0  0  0  0
   -1.5000    2.5981    0.0000 C   0  0  0  0  0  0  0  0  0  0  0  0
   -3.0000    2.5981    0.0000 C   0  0  0  0  0  0  0  0  0  0  0  0
   -3.7500    1.2990    0.0000 C   0  0  0  0  0  0  0  0  0  0  0  0
   -5.2500    1.2990    0.0000 O   0  0  0  0  0  0  0  0  0  0  0  0
   -3.0000    0.0000    0.0000 N   0  0  0  0  0  0  0  0  0  0  0  0
   12.7500   -6.4952    0.0000 N   0  0  0  0  0  0  0  0  0  0  0  0
   14.2500   -6.4952    0.0000 O   0  0  0  0  0  0  0  0  0  0  0  0
  1  2  2  0
  2  3  1  0
  3  4  1  0
  4  5  1  0
  5  6  1  0
  6  7  1  0
  7  8  1  0
  8  9  1  0
  9 10  2  0
  9 11  1  0
 11 12  1  0
 12 13  2  0
 13 14  1  0
 14 15  2  0
 15 16  1  0
 16 17  2  0
 16 18  1  0
 18 19  1  0
 19 20  1  0
 20 21  2  0
 20 22  1  0
  2 23  1  0
 23 24  1  0
 17 12  1  0
 22 15  1  0
M  END
>  <molecule_chembl_id>  (1141) 
CHEMBL3311465

>  <canonical_smiles>  (1141) 
O=C(CCCCCCC(=O)Nc1ccc2c(c1)CCC(=O)N2)NO

>  <pchembl_value_mean>  (1141) 
7.75

>  <document_chembl_id>  (1141) 
CHEMBL3351757

$$$$

     RDKit          2D

 28 30  0  0  0  0  0  0  0  0999 V2000
    3.7500    1.2990    0.0000 O   0  0  0  0  0  0  0  0  0  0  0  0
    3.0000    0.0000    0.0000 C   0  0  0  0  0  0  0  0  0  0  0  0
    3.7500   -1.2990    0.0000 N   0  0  0  0  0  0  0  0  0  0  0  0
    5.2500   -1.2990    0.0000 O   0  0  0  0  0  0  0  0  0  0  0  0
    1.5000    0.0000    0.0000 C   0  0  0  0  0  0  0  0  0  0  0  0
    0.7500   -1.2990    0.0000 C   0  0  0  0  0  0  0  0  0  0  0  0
   -0.7500   -1.2990    0.0000 N   0  0  0  0  0  0  0  0  0  0  0  0
   -1.5000    0.0000    0.0000 C   0  0  0  0  0  0  0  0  0  0  0  0
   -3.0000    0.0000    0.0000 N   0  0  0  0  0  0  0  0  0  0  0  0
   -3.7500    1.2990    0.0000 C   0  0  0  0  0  0  0  0  0  0  0  0
   -5.2500    1.2990    0.0000 C   0  0  0  0  0  0  0  0  0  0  0  0
   -6.0000    0.0000    0.0000 N   0  0  0  0  0  0  0  0  0  0  0  0
   -7.5000    0.0000    0.0000 C   0  0  0  0  0  0  0  0  0  0  0  0
   -8.2500    1.2990    0.0000 C   0  0  0  0  0  0  0  0  0  0  0  0
   -9.7500    1.2990    0.0000 C   0  0  0  0  0  0  0  0  0  0  0  0
  -10.5000    2.5981    0.0000 C   0  0  0  0  0  0  0  0  0  0  0  0
   -9.7500    3.8971    0.0000 C   0  0  0  0  0  0  0  0  0  0  0  0
  -10.5000    5.1962    0.0000 C   0  0  0  0  0  0  0  0  0  0  0  0
  -12.0000    5.1962    0.0000 C   0  0  0  0  0  0  0  0  0  0  0  0
  -12.7500    6.4952    0.0000 F   0  0  0  0  0  0  0  0  0  0  0  0
  -12.7500    3.8971    0.0000 C   0  0  0  0  0  0  0  0  0  0  0  0
  -12.0000    2.5981    0.0000 C   0  0  0  0  0  0  0  0  0  0  0  0
   -8.2500   -1.2990    0.0000 C   0  0  0  0  0  0  0  0  0  0  0  0
   -9.7500   -1.2990    0.0000 O   0  0  0  0  0  0  0  0  0  0  0  0
   -5.2500   -1.2990    0.0000 C   0  0  0  0  0  0  0  0  0  0  0  0
   -3.7500   -1.2990    0.0000 C   0  0  0  0  0  0  0  0  0  0  0  0
   -0.7500    1.2990    0.0000 N   0  0  0  0  0  0  0  0  0  0  0  0
    0.7500    1.2990    0.0000 C   0  0  0  0  0  0  0  0  0  0  0  0
  1  2  2  0
  2  3  1  0
  3  4  1  0
  2  5  1  0
  5  6  2  0
  6  7  1  0
  7  8  2  0
  8  9  1  0
  9 10  1  0
 10 11  1  0
 11 12  1  0
 12 13  1  0
 13 14  1  0
 14 15  2  3
 15 16  1  0
 16 17  2  0
 17 18  1  0
 18 19  2  0
 19 20  1  0
 19 21  1  0
 21 22  2  0
 13 23  1  0
 23 24  1  0
 12 25  1  0
 25 26  1  0
  8 27  1  0
 27 28  2  0
 28  5  1  0
 26  9  1  0
 22 16  1  0
M  END
>  <molecule_chembl_id>  (1142) 
CHEMBL594544

>  <canonical_smiles>  (1142) 
O=C(NO)c1cnc(N2CCN(C(C=Cc3ccc(F)cc3)CO)CC2)nc1

>  <pchembl_value_mean>  (1142) 
7.75

>  <document_chembl_id>  (1142) 
CHEMBL1153112

$$$$

     RDKit          2D

 47 52  0  0  0  0  0  0  0  0999 V2000
   10.7824  -15.8378    0.0000 C   0  0  0  0  0  0  0  0  0  0  0  0
    9.4121  -15.2277    0.0000 C   0  0  0  0  0  0  0  0  0  0  0  0
    9.2553  -13.7359    0.0000 C   0  0  0  0  0  0  0  0  0  0  0  0
   10.4688  -12.8543    0.0000 O   0  0  0  0  0  0  0  0  0  0  0  0
    7.8850  -13.1258    0.0000 C   0  0  0  0  0  0  0  0  0  0  0  0
    7.7282  -11.6340    0.0000 C   0  0  0  0  0  0  0  0  0  0  0  0
    6.3579  -11.0239    0.0000 C   0  0  0  0  0  0  0  0  0  0  0  0
    6.2011   -9.5322    0.0000 C   0  0  0  0  0  0  0  0  0  0  0  0
    4.8308   -8.9221    0.0000 C   0  0  0  0  0  0  0  0  0  0  0  0
    4.6740   -7.4303    0.0000 C   0  0  0  0  0  0  0  0  0  0  0  0
    5.8875   -6.5486    0.0000 N   0  0  0  0  0  0  0  0  0  0  0  0
    7.2578   -7.1587    0.0000 C   0  0  0  0  0  0  0  0  0  0  0  0
    7.4146   -8.6505    0.0000 O   0  0  0  0  0  0  0  0  0  0  0  0
    8.4713   -6.2770    0.0000 C   0  0  0  0  0  0  0  0  0  0  0  0
    9.0814   -4.9067    0.0000 C   0  0  0  0  0  0  0  0  0  0  0  0
    9.9631   -6.1202    0.0000 C   0  0  0  0  0  0  0  0  0  0  0  0
   10.1199   -7.6120    0.0000 C   0  0  0  0  0  0  0  0  0  0  0  0
   11.4902   -8.2221    0.0000 C   0  0  0  0  0  0  0  0  0  0  0  0
   12.7038   -7.3404    0.0000 N   0  0  0  0  0  0  0  0  0  0  0  0
   14.0741   -7.9505    0.0000 C   0  0  0  0  0  0  0  0  0  0  0  0
   14.2309   -9.4423    0.0000 C   0  0  0  0  0  0  0  0  0  0  0  0
   13.0173  -10.3240    0.0000 C   0  0  0  0  0  0  0  0  0  0  0  0
   13.1741  -11.8158    0.0000 C   0  0  0  0  0  0  0  0  0  0  0  0
   14.5445  -12.4259    0.0000 C   0  0  0  0  0  0  0  0  0  0  0  0
   14.7012  -13.9177    0.0000 O   0  0  0  0  0  0  0  0  0  0  0  0
   13.4877  -14.7994    0.0000 C   0  0  0  0  0  0  0  0  0  0  0  0
   15.7580  -11.5442    0.0000 C   0  0  0  0  0  0  0  0  0  0  0  0
   15.6012  -10.0524    0.0000 C   0  0  0  0  0  0  0  0  0  0  0  0
   12.5470   -5.8487    0.0000 C   0  0  0  0  0  0  0  0  0  0  0  0
   11.1766   -5.2386    0.0000 C   0  0  0  0  0  0  0  0  0  0  0  0
    3.3037   -6.8202    0.0000 C   0  0  0  0  0  0  0  0  0  0  0  0
    2.0046   -7.5702    0.0000 N   0  0  0  0  0  0  0  0  0  0  0  0
    0.8899   -6.5665    0.0000 C   0  0  0  0  0  0  0  0  0  0  0  0
    1.5000   -5.1962    0.0000 C   0  0  0  0  0  0  0  0  0  0  0  0
    0.7500   -3.8971    0.0000 C   0  0  0  0  0  0  0  0  0  0  0  0
    1.5000   -2.5981    0.0000 C   0  0  0  0  0  0  0  0  0  0  0  0
    0.7500   -1.2990    0.0000 C   0  0  0  0  0  0  0  0  0  0  0  0
    1.5000    0.0000    0.0000 C   0  0  0  0  0  0  0  0  0  0  0  0
    0.7500    1.2990    0.0000 C   0  0  0  0  0  0  0  0  0  0  0  0
   -0.7500    1.2990    0.0000 C   0  0  0  0  0  0  0  0  0  0  0  0
   -1.5000    0.0000    0.0000 C   0  0  0  0  0  0  0  0  0  0  0  0
   -0.7500   -1.2990    0.0000 C   0  0  0  0  0  0  0  0  0  0  0  0
   -1.5000   -2.5981    0.0000 N   0  0  0  0  0  0  0  0  0  0  0  0
   -0.7500   -3.8971    0.0000 C   0  0  0  0  0  0  0  0  0  0  0  0
   -1.5000   -5.1962    0.0000 O   0  0  0  0  0  0  0  0  0  0  0  0
   -3.0000   -5.1962    0.0000 C   0  0  0  0  0  0  0  0  0  0  0  0
    2.9918   -5.3529    0.0000 N   0  0  0  0  0  0  0  0  0  0  0  0
  1  2  1  0
  2  3  1  0
  3  4  2  0
  3  5  1  0
  5  6  1  0
  6  7  1  0
  7  8  1  0
  8  9  1  0
  9 10  1  0
 10 11  1  0
 11 12  1  0
 12 13  2  0
 12 14  1  0
 14 15  1  0
 15 16  1  0
 16 17  1  0
 17 18  1  0
 18 19  1  0
 19 20  1  0
 20 21  1  0
 21 22  2  0
 22 23  1  0
 23 24  2  0
 24 25  1  0
 25 26  1  0
 24 27  1  0
 27 28  2  0
 19 29  1  0
 29 30  1  0
 10 31  1  0
 31 32  2  0
 32 33  1  0
 33 34  2  0
 34 35  1  0
 35 36  2  0
 36 37  1  0
 37 38  2  0
 38 39  1  0
 39 40  2  0
 40 41  1  0
 41 42  2  0
 42 43  1  0
 43 44  2  0
 44 45  1  0
 45 46  1  0
 34 47  1  0
 16 14  1  0
 28 21  1  0
 47 31  1  0
 30 16  1  0
 44 35  1  0
 42 37  1  0
M  END
>  <molecule_chembl_id>  (1143) 
CHEMBL4647014

>  <canonical_smiles>  (1143) 
CCC(=O)CCCCCC(NC(=O)C1CC12CCN(Cc1ccc(OC)cc1)CC2)c1ncc(-c2cc3ccccc3nc2OC)[nH]1

>  <pchembl_value_mean>  (1143) 
7.76

>  <document_chembl_id>  (1143) 
CHEMBL4622849

$$$$

     RDKit          2D

 22 24  0  0  0  0  0  0  0  0999 V2000
    3.7500    1.2990    0.0000 O   0  0  0  0  0  0  0  0  0  0  0  0
    3.0000    0.0000    0.0000 C   0  0  0  0  0  0  0  0  0  0  0  0
    3.7500   -1.2990    0.0000 N   0  0  0  0  0  0  0  0  0  0  0  0
    5.2500   -1.2990    0.0000 O   0  0  0  0  0  0  0  0  0  0  0  0
    1.5000    0.0000    0.0000 C   0  0  0  0  0  0  0  0  0  0  0  0
    0.7500   -1.2990    0.0000 C   0  0  0  0  0  0  0  0  0  0  0  0
   -0.7500   -1.2990    0.0000 N   0  0  0  0  0  0  0  0  0  0  0  0
   -1.5000    0.0000    0.0000 C   0  0  0  0  0  0  0  0  0  0  0  0
   -3.0000    0.0000    0.0000 N   0  0  0  0  0  0  0  0  0  0  0  0
   -3.7500    1.2990    0.0000 C   0  0  0  0  0  0  0  0  0  0  0  0
   -5.1595    0.7860    0.0000 C   0  0  0  0  0  0  0  0  0  0  0  0
   -5.4200   -0.6912    0.0000 C   0  0  0  0  0  0  0  0  0  0  0  0
   -6.8296   -1.2042    0.0000 C   0  0  0  0  0  0  0  0  0  0  0  0
   -7.9786   -0.2401    0.0000 C   0  0  0  0  0  0  0  0  0  0  0  0
   -7.7181    1.2372    0.0000 C   0  0  0  0  0  0  0  0  0  0  0  0
   -8.8672    2.2013    0.0000 F   0  0  0  0  0  0  0  0  0  0  0  0
   -6.3086    1.7502    0.0000 C   0  0  0  0  0  0  0  0  0  0  0  0
   -6.0481    3.2274    0.0000 F   0  0  0  0  0  0  0  0  0  0  0  0
   -4.0105    2.7762    0.0000 C   0  0  0  0  0  0  0  0  0  0  0  0
   -2.6009    2.2632    0.0000 C   0  0  0  0  0  0  0  0  0  0  0  0
   -0.7500    1.2990    0.0000 N   0  0  0  0  0  0  0  0  0  0  0  0
    0.7500    1.2990    0.0000 C   0  0  0  0  0  0  0  0  0  0  0  0
  1  2  2  0
  2  3  1  0
  3  4  1  0
  2  5  1  0
  5  6  2  0
  6  7  1  0
  7  8  2  0
  8  9  1  0
  9 10  1  0
 10 11  1  0
 11 12  2  0
 12 13  1  0
 13 14  2  0
 14 15  1  0
 15 16  1  0
 15 17  2  0
 17 18  1  0
 10 19  1  0
 19 20  1  0
  8 21  1  0
 21 22  2  0
 22  5  1  0
 20 10  1  0
 17 11  1  0
M  END
>  <molecule_chembl_id>  (1144) 
CHEMBL3656012

>  <canonical_smiles>  (1144) 
O=C(NO)c1cnc(NC2(c3cccc(F)c3F)CC2)nc1

>  <pchembl_value_mean>  (1144) 
7.77

>  <document_chembl_id>  (1144) 
CHEMBL3639071

$$$$

     RDKit          2D

 22 24  0  0  0  0  0  0  0  0999 V2000
    3.7500    1.2990    0.0000 O   0  0  0  0  0  0  0  0  0  0  0  0
    3.0000    0.0000    0.0000 C   0  0  0  0  0  0  0  0  0  0  0  0
    3.7500   -1.2990    0.0000 N   0  0  0  0  0  0  0  0  0  0  0  0
    5.2500   -1.2990    0.0000 O   0  0  0  0  0  0  0  0  0  0  0  0
    1.5000    0.0000    0.0000 C   0  0  0  0  0  0  0  0  0  0  0  0
    0.7500   -1.2990    0.0000 C   0  0  0  0  0  0  0  0  0  0  0  0
   -0.7500   -1.2990    0.0000 N   0  0  0  0  0  0  0  0  0  0  0  0
   -1.5000    0.0000    0.0000 C   0  0  0  0  0  0  0  0  0  0  0  0
   -3.0000    0.0000    0.0000 N   0  0  0  0  0  0  0  0  0  0  0  0
   -3.7500    1.2990    0.0000 C   0  0  0  0  0  0  0  0  0  0  0  0
   -5.1595    0.7860    0.0000 C   0  0  0  0  0  0  0  0  0  0  0  0
   -5.4200   -0.6912    0.0000 C   0  0  0  0  0  0  0  0  0  0  0  0
   -6.8296   -1.2042    0.0000 C   0  0  0  0  0  0  0  0  0  0  0  0
   -7.9786   -0.2401    0.0000 C   0  0  0  0  0  0  0  0  0  0  0  0
   -9.3882   -0.7531    0.0000 Cl  0  0  0  0  0  0  0  0  0  0  0  0
   -7.7181    1.2372    0.0000 C   0  0  0  0  0  0  0  0  0  0  0  0
   -8.8672    2.2013    0.0000 Cl  0  0  0  0  0  0  0  0  0  0  0  0
   -6.3086    1.7502    0.0000 C   0  0  0  0  0  0  0  0  0  0  0  0
   -4.0105    2.7762    0.0000 C   0  0  0  0  0  0  0  0  0  0  0  0
   -2.6009    2.2632    0.0000 C   0  0  0  0  0  0  0  0  0  0  0  0
   -0.7500    1.2990    0.0000 N   0  0  0  0  0  0  0  0  0  0  0  0
    0.7500    1.2990    0.0000 C   0  0  0  0  0  0  0  0  0  0  0  0
  1  2  2  0
  2  3  1  0
  3  4  1  0
  2  5  1  0
  5  6  2  0
  6  7  1  0
  7  8  2  0
  8  9  1  0
  9 10  1  0
 10 11  1  0
 11 12  2  0
 12 13  1  0
 13 14  2  0
 14 15  1  0
 14 16  1  0
 16 17  1  0
 16 18  2  0
 10 19  1  0
 19 20  1  0
  8 21  1  0
 21 22  2  0
 22  5  1  0
 20 10  1  0
 18 11  1  0
M  END
>  <molecule_chembl_id>  (1145) 
CHEMBL3656010

>  <canonical_smiles>  (1145) 
O=C(NO)c1cnc(NC2(c3ccc(Cl)c(Cl)c3)CC2)nc1

>  <pchembl_value_mean>  (1145) 
7.77

>  <document_chembl_id>  (1145) 
CHEMBL3639071

$$$$

     RDKit          2D

 26 28  0  0  0  0  0  0  0  0999 V2000
  -12.9904   -9.6073    0.0000 C   0  0  0  0  0  0  0  0  0  0  0  0
  -11.6913  -10.3573    0.0000 C   0  0  0  0  0  0  0  0  0  0  0  0
  -10.3923   -9.6073    0.0000 C   0  0  0  0  0  0  0  0  0  0  0  0
   -9.0933  -10.3573    0.0000 N   0  0  0  0  0  0  0  0  0  0  0  0
   -7.7942   -9.6073    0.0000 N   0  0  0  0  0  0  0  0  0  0  0  0
   -6.4952  -10.3573    0.0000 C   0  0  0  0  0  0  0  0  0  0  0  0
   -6.4952  -11.8573    0.0000 O   0  0  0  0  0  0  0  0  0  0  0  0
   -5.1962   -9.6073    0.0000 C   0  0  0  0  0  0  0  0  0  0  0  0
   -5.1962   -8.1073    0.0000 C   0  0  0  0  0  0  0  0  0  0  0  0
   -3.8971   -7.3573    0.0000 C   0  0  0  0  0  0  0  0  0  0  0  0
   -2.5981   -8.1073    0.0000 C   0  0  0  0  0  0  0  0  0  0  0  0
   -1.2990   -7.3573    0.0000 C   0  0  0  0  0  0  0  0  0  0  0  0
   -1.2990   -5.8573    0.0000 N   0  0  0  0  0  0  0  0  0  0  0  0
   -0.0000   -5.1073    0.0000 C   0  0  0  0  0  0  0  0  0  0  0  0
    1.2990   -5.8573    0.0000 O   0  0  0  0  0  0  0  0  0  0  0  0
   -0.0000   -3.6073    0.0000 C   0  0  0  0  0  0  0  0  0  0  0  0
    1.2135   -2.7256    0.0000 C   0  0  0  0  0  0  0  0  0  0  0  0
    0.7500   -1.2990    0.0000 C   0  0  0  0  0  0  0  0  0  0  0  0
    1.5000    0.0000    0.0000 C   0  0  0  0  0  0  0  0  0  0  0  0
    0.7500    1.2990    0.0000 C   0  0  0  0  0  0  0  0  0  0  0  0
   -0.7500    1.2990    0.0000 C   0  0  0  0  0  0  0  0  0  0  0  0
   -1.5000    0.0000    0.0000 C   0  0  0  0  0  0  0  0  0  0  0  0
   -0.7500   -1.2990    0.0000 C   0  0  0  0  0  0  0  0  0  0  0  0
   -1.2135   -2.7256    0.0000 S   0  0  0  0  0  0  0  0  0  0  0  0
   -2.5981   -9.6073    0.0000 C   0  0  0  0  0  0  0  0  0  0  0  0
   -3.8971  -10.3573    0.0000 C   0  0  0  0  0  0  0  0  0  0  0  0
  1  2  1  0
  2  3  1  0
  3  4  1  0
  4  5  1  0
  5  6  1  0
  6  7  2  0
  6  8  1  0
  8  9  2  0
  9 10  1  0
 10 11  2  0
 11 12  1  0
 12 13  1  0
 13 14  1  0
 14 15  2  0
 14 16  1  0
 16 17  2  0
 17 18  1  0
 18 19  2  0
 19 20  1  0
 20 21  2  0
 21 22  1  0
 22 23  2  0
 23 24  1  0
 11 25  1  0
 25 26  2  0
 26  8  1  0
 24 16  1  0
 23 18  1  0
M  END
>  <molecule_chembl_id>  (1146) 
CHEMBL5087431

>  <canonical_smiles>  (1146) 
CCCNNC(=O)c1ccc(CNC(=O)c2cc3ccccc3s2)cc1

>  <pchembl_value_mean>  (1146) 
7.77

>  <document_chembl_id>  (1146) 
CHEMBL5042504

$$$$

     RDKit          2D

 26 28  0  0  0  0  0  0  0  0999 V2000
    3.7500    1.2990    0.0000 O   0  0  0  0  0  0  0  0  0  0  0  0
    3.0000    0.0000    0.0000 C   0  0  0  0  0  0  0  0  0  0  0  0
    3.7500   -1.2990    0.0000 N   0  0  0  0  0  0  0  0  0  0  0  0
    5.2500   -1.2990    0.0000 O   0  0  0  0  0  0  0  0  0  0  0  0
    1.5000    0.0000    0.0000 C   0  0  0  0  0  0  0  0  0  0  0  0
    0.7500   -1.2990    0.0000 C   0  0  0  0  0  0  0  0  0  0  0  0
   -0.7500   -1.2990    0.0000 C   0  0  0  0  0  0  0  0  0  0  0  0
   -1.5000    0.0000    0.0000 C   0  0  0  0  0  0  0  0  0  0  0  0
   -3.0000    0.0000    0.0000 N   0  0  0  0  0  0  0  0  0  0  0  0
   -3.7500    1.2990    0.0000 C   0  0  0  0  0  0  0  0  0  0  0  0
   -3.0000    2.5981    0.0000 O   0  0  0  0  0  0  0  0  0  0  0  0
   -5.2500    1.2990    0.0000 C   0  0  0  0  0  0  0  0  0  0  0  0
   -4.9895   -0.1782    0.0000 C   0  0  0  0  0  0  0  0  0  0  0  0
   -6.1386   -1.1424    0.0000 C   0  0  0  0  0  0  0  0  0  0  0  0
   -5.8781   -2.6196    0.0000 C   0  0  0  0  0  0  0  0  0  0  0  0
   -4.4686   -3.1326    0.0000 C   0  0  0  0  0  0  0  0  0  0  0  0
   -4.2081   -4.6098    0.0000 Br  0  0  0  0  0  0  0  0  0  0  0  0
   -3.3195   -2.1684    0.0000 C   0  0  0  0  0  0  0  0  0  0  0  0
   -3.5800   -0.6912    0.0000 C   0  0  0  0  0  0  0  0  0  0  0  0
   -4.9895    2.7762    0.0000 C   0  0  0  0  0  0  0  0  0  0  0  0
   -6.1386    3.7404    0.0000 C   0  0  0  0  0  0  0  0  0  0  0  0
   -7.5481    3.2274    0.0000 O   0  0  0  0  0  0  0  0  0  0  0  0
   -7.8086    1.7502    0.0000 C   0  0  0  0  0  0  0  0  0  0  0  0
   -6.6595    0.7860    0.0000 C   0  0  0  0  0  0  0  0  0  0  0  0
   -0.7500    1.2990    0.0000 C   0  0  0  0  0  0  0  0  0  0  0  0
    0.7500    1.2990    0.0000 C   0  0  0  0  0  0  0  0  0  0  0  0
  1  2  2  0
  2  3  1  0
  3  4  1  0
  2  5  1  0
  5  6  2  0
  6  7  1  0
  7  8  2  0
  8  9  1  0
  9 10  1  0
 10 11  2  0
 10 12  1  0
 12 13  1  0
 13 14  2  0
 14 15  1  0
 15 16  2  0
 16 17  1  0
 16 18  1  0
 18 19  2  0
 12 20  1  0
 20 21  1  0
 21 22  1  0
 22 23  1  0
 23 24  1  0
  8 25  1  0
 25 26  2  0
 26  5  1  0
 24 12  1  0
 19 13  1  0
M  END
>  <molecule_chembl_id>  (1147) 
CHEMBL4634521

>  <canonical_smiles>  (1147) 
O=C(NO)c1ccc(NC(=O)C2(c3ccc(Br)cc3)CCOCC2)cc1

>  <pchembl_value_mean>  (1147) 
7.77

>  <document_chembl_id>  (1147) 
CHEMBL4602725

$$$$

     RDKit          2D

 26 28  0  0  0  0  0  0  0  0999 V2000
    3.7500    1.2990    0.0000 O   0  0  0  0  0  0  0  0  0  0  0  0
    3.0000    0.0000    0.0000 C   0  0  0  0  0  0  0  0  0  0  0  0
    3.7500   -1.2990    0.0000 N   0  0  0  0  0  0  0  0  0  0  0  0
    5.2500   -1.2990    0.0000 O   0  0  0  0  0  0  0  0  0  0  0  0
    1.5000    0.0000    0.0000 C   0  0  0  0  0  0  0  0  0  0  0  0
    0.7500   -1.2990    0.0000 C   0  0  0  0  0  0  0  0  0  0  0  0
   -0.7500   -1.2990    0.0000 C   0  0  0  0  0  0  0  0  0  0  0  0
   -1.5000    0.0000    0.0000 C   0  0  0  0  0  0  0  0  0  0  0  0
   -3.0000    0.0000    0.0000 C   0  0  0  0  0  0  0  0  0  0  0  0
   -3.7500    1.2990    0.0000 N   0  0  0  0  0  0  0  0  0  0  0  0
   -5.2500    1.2990    0.0000 C   0  0  0  0  0  0  0  0  0  0  0  0
   -6.0000    0.0000    0.0000 O   0  0  0  0  0  0  0  0  0  0  0  0
   -6.0000    2.5981    0.0000 C   0  0  0  0  0  0  0  0  0  0  0  0
   -7.4918    2.7549    0.0000 C   0  0  0  0  0  0  0  0  0  0  0  0
   -7.8037    4.2221    0.0000 C   0  0  0  0  0  0  0  0  0  0  0  0
   -9.1740    4.8322    0.0000 C   0  0  0  0  0  0  0  0  0  0  0  0
   -9.3308    6.3240    0.0000 C   0  0  0  0  0  0  0  0  0  0  0  0
  -10.7011    6.9341    0.0000 C   0  0  0  0  0  0  0  0  0  0  0  0
  -11.9146    6.0524    0.0000 C   0  0  0  0  0  0  0  0  0  0  0  0
  -13.2849    6.6625    0.0000 F   0  0  0  0  0  0  0  0  0  0  0  0
  -11.7578    4.5606    0.0000 C   0  0  0  0  0  0  0  0  0  0  0  0
  -10.3875    3.9505    0.0000 C   0  0  0  0  0  0  0  0  0  0  0  0
   -6.5046    4.9721    0.0000 N   0  0  0  0  0  0  0  0  0  0  0  0
   -5.3899    3.9684    0.0000 N   0  0  0  0  0  0  0  0  0  0  0  0
   -0.7500    1.2990    0.0000 C   0  0  0  0  0  0  0  0  0  0  0  0
    0.7500    1.2990    0.0000 C   0  0  0  0  0  0  0  0  0  0  0  0
  1  2  2  0
  2  3  1  0
  3  4  1  0
  2  5  1  0
  5  6  2  0
  6  7  1  0
  7  8  2  0
  8  9  1  0
  9 10  1  0
 10 11  1  0
 11 12  2  0
 11 13  1  0
 13 14  1  0
 14 15  2  0
 15 16  1  0
 16 17  2  0
 17 18  1  0
 18 19  2  0
 19 20  1  0
 19 21  1  0
 21 22  2  0
 15 23  1  0
 23 24  1  0
  8 25  1  0
 25 26  2  0
 26  5  1  0
 24 13  2  0
 22 16  1  0
M  END
>  <molecule_chembl_id>  (1148) 
CHEMBL4225914

>  <canonical_smiles>  (1148) 
O=C(NO)c1ccc(CNC(=O)c2cc(-c3ccc(F)cc3)[nH]n2)cc1

>  <pchembl_value_mean>  (1148) 
7.77

>  <document_chembl_id>  (1148) 
CHEMBL4219109

$$$$

     RDKit          2D

 28 30  0  0  0  0  0  0  0  0999 V2000
  -12.9904   -9.6073    0.0000 C   0  0  0  0  0  0  0  0  0  0  0  0
  -11.6913  -10.3573    0.0000 C   0  0  0  0  0  0  0  0  0  0  0  0
  -10.3923   -9.6073    0.0000 C   0  0  0  0  0  0  0  0  0  0  0  0
   -9.0933  -10.3573    0.0000 N   0  0  0  0  0  0  0  0  0  0  0  0
   -7.7942   -9.6073    0.0000 N   0  0  0  0  0  0  0  0  0  0  0  0
   -6.4952  -10.3573    0.0000 C   0  0  0  0  0  0  0  0  0  0  0  0
   -6.4952  -11.8573    0.0000 O   0  0  0  0  0  0  0  0  0  0  0  0
   -5.1962   -9.6073    0.0000 C   0  0  0  0  0  0  0  0  0  0  0  0
   -5.1962   -8.1073    0.0000 C   0  0  0  0  0  0  0  0  0  0  0  0
   -3.8971   -7.3573    0.0000 C   0  0  0  0  0  0  0  0  0  0  0  0
   -2.5981   -8.1073    0.0000 C   0  0  0  0  0  0  0  0  0  0  0  0
   -1.2990   -7.3573    0.0000 C   0  0  0  0  0  0  0  0  0  0  0  0
   -1.2990   -5.8573    0.0000 N   0  0  0  0  0  0  0  0  0  0  0  0
   -0.0000   -5.1073    0.0000 C   0  0  0  0  0  0  0  0  0  0  0  0
    1.2990   -5.8573    0.0000 O   0  0  0  0  0  0  0  0  0  0  0  0
   -0.0000   -3.6073    0.0000 C   0  0  0  0  0  0  0  0  0  0  0  0
    1.2135   -2.7256    0.0000 C   0  0  0  0  0  0  0  0  0  0  0  0
    0.7500   -1.2990    0.0000 C   0  0  0  0  0  0  0  0  0  0  0  0
    1.5000    0.0000    0.0000 C   0  0  0  0  0  0  0  0  0  0  0  0
    0.7500    1.2990    0.0000 C   0  0  0  0  0  0  0  0  0  0  0  0
    1.5000    2.5981    0.0000 O   0  0  0  0  0  0  0  0  0  0  0  0
    3.0000    2.5981    0.0000 C   0  0  0  0  0  0  0  0  0  0  0  0
   -0.7500    1.2990    0.0000 C   0  0  0  0  0  0  0  0  0  0  0  0
   -1.5000    0.0000    0.0000 C   0  0  0  0  0  0  0  0  0  0  0  0
   -0.7500   -1.2990    0.0000 C   0  0  0  0  0  0  0  0  0  0  0  0
   -1.2135   -2.7256    0.0000 N   0  0  0  0  0  0  0  0  0  0  0  0
   -2.5981   -9.6073    0.0000 C   0  0  0  0  0  0  0  0  0  0  0  0
   -3.8971  -10.3573    0.0000 C   0  0  0  0  0  0  0  0  0  0  0  0
  1  2  1  0
  2  3  1  0
  3  4  1  0
  4  5  1  0
  5  6  1  0
  6  7  2  0
  6  8  1  0
  8  9  2  0
  9 10  1  0
 10 11  2  0
 11 12  1  0
 12 13  1  0
 13 14  1  0
 14 15  2  0
 14 16  1  0
 16 17  2  0
 17 18  1  0
 18 19  2  0
 19 20  1  0
 20 21  1  0
 21 22  1  0
 20 23  2  0
 23 24  1  0
 24 25  2  0
 25 26  1  0
 11 27  1  0
 27 28  2  0
 28  8  1  0
 26 16  1  0
 25 18  1  0
M  END
>  <molecule_chembl_id>  (1149) 
CHEMBL5080511

>  <canonical_smiles>  (1149) 
CCCNNC(=O)c1ccc(CNC(=O)c2cc3cc(OC)ccc3[nH]2)cc1

>  <pchembl_value_mean>  (1149) 
7.79

>  <document_chembl_id>  (1149) 
CHEMBL5042504

$$$$

     RDKit          2D

 27 29  0  0  0  0  0  0  0  0999 V2000
  -12.9904   -9.6073    0.0000 C   0  0  0  0  0  0  0  0  0  0  0  0
  -11.6913  -10.3573    0.0000 C   0  0  0  0  0  0  0  0  0  0  0  0
  -10.3923   -9.6073    0.0000 C   0  0  0  0  0  0  0  0  0  0  0  0
   -9.0933  -10.3573    0.0000 N   0  0  0  0  0  0  0  0  0  0  0  0
   -7.7942   -9.6073    0.0000 N   0  0  0  0  0  0  0  0  0  0  0  0
   -6.4952  -10.3573    0.0000 C   0  0  0  0  0  0  0  0  0  0  0  0
   -6.4952  -11.8573    0.0000 O   0  0  0  0  0  0  0  0  0  0  0  0
   -5.1962   -9.6073    0.0000 C   0  0  0  0  0  0  0  0  0  0  0  0
   -5.1962   -8.1073    0.0000 C   0  0  0  0  0  0  0  0  0  0  0  0
   -3.8971   -7.3573    0.0000 C   0  0  0  0  0  0  0  0  0  0  0  0
   -2.5981   -8.1073    0.0000 C   0  0  0  0  0  0  0  0  0  0  0  0
   -1.2990   -7.3573    0.0000 C   0  0  0  0  0  0  0  0  0  0  0  0
   -1.2990   -5.8573    0.0000 N   0  0  0  0  0  0  0  0  0  0  0  0
   -0.0000   -5.1073    0.0000 C   0  0  0  0  0  0  0  0  0  0  0  0
    1.2990   -5.8573    0.0000 O   0  0  0  0  0  0  0  0  0  0  0  0
   -0.0000   -3.6073    0.0000 C   0  0  0  0  0  0  0  0  0  0  0  0
    1.2135   -2.7256    0.0000 C   0  0  0  0  0  0  0  0  0  0  0  0
    0.7500   -1.2990    0.0000 C   0  0  0  0  0  0  0  0  0  0  0  0
    1.5000    0.0000    0.0000 C   0  0  0  0  0  0  0  0  0  0  0  0
    0.7500    1.2990    0.0000 C   0  0  0  0  0  0  0  0  0  0  0  0
    1.5000    2.5981    0.0000 O   0  0  0  0  0  0  0  0  0  0  0  0
   -0.7500    1.2990    0.0000 C   0  0  0  0  0  0  0  0  0  0  0  0
   -1.5000    0.0000    0.0000 C   0  0  0  0  0  0  0  0  0  0  0  0
   -0.7500   -1.2990    0.0000 C   0  0  0  0  0  0  0  0  0  0  0  0
   -1.2135   -2.7256    0.0000 O   0  0  0  0  0  0  0  0  0  0  0  0
   -2.5981   -9.6073    0.0000 C   0  0  0  0  0  0  0  0  0  0  0  0
   -3.8971  -10.3573    0.0000 C   0  0  0  0  0  0  0  0  0  0  0  0
  1  2  1  0
  2  3  1  0
  3  4  1  0
  4  5  1  0
  5  6  1  0
  6  7  2  0
  6  8  1  0
  8  9  2  0
  9 10  1  0
 10 11  2  0
 11 12  1  0
 12 13  1  0
 13 14  1  0
 14 15  2  0
 14 16  1  0
 16 17  2  0
 17 18  1  0
 18 19  2  0
 19 20  1  0
 20 21  1  0
 20 22  2  0
 22 23  1  0
 23 24  2  0
 24 25  1  0
 11 26  1  0
 26 27  2  0
 27  8  1  0
 25 16  1  0
 24 18  1  0
M  END
>  <molecule_chembl_id>  (1150) 
CHEMBL5086141

>  <canonical_smiles>  (1150) 
CCCNNC(=O)c1ccc(CNC(=O)c2cc3cc(O)ccc3o2)cc1

>  <pchembl_value_mean>  (1150) 
7.79

>  <document_chembl_id>  (1150) 
CHEMBL5042504

$$$$

     RDKit          2D

 31 34  0  0  0  0  0  0  0  0999 V2000
    6.0000   -7.7942    0.0000 C   0  0  0  0  0  0  0  0  0  0  0  0
    5.2500   -6.4952    0.0000 C   0  0  0  0  0  0  0  0  0  0  0  0
    6.0000   -5.1962    0.0000 C   0  0  0  0  0  0  0  0  0  0  0  0
    5.2500   -3.8971    0.0000 C   0  0  0  0  0  0  0  0  0  0  0  0
    3.7500   -3.8971    0.0000 C   0  0  0  0  0  0  0  0  0  0  0  0
    3.0000   -2.5981    0.0000 N   0  0  0  0  0  0  0  0  0  0  0  0
    1.5000   -2.5981    0.0000 C   0  0  0  0  0  0  0  0  0  0  0  0
    0.7500   -1.2990    0.0000 C   0  0  0  0  0  0  0  0  0  0  0  0
    1.5000    0.0000    0.0000 C   0  0  0  0  0  0  0  0  0  0  0  0
    0.7500    1.2990    0.0000 C   0  0  0  0  0  0  0  0  0  0  0  0
   -0.7500    1.2990    0.0000 C   0  0  0  0  0  0  0  0  0  0  0  0
   -1.5000    0.0000    0.0000 C   0  0  0  0  0  0  0  0  0  0  0  0
   -0.7500   -1.2990    0.0000 C   0  0  0  0  0  0  0  0  0  0  0  0
   -1.5000   -2.5981    0.0000 C   0  0  0  0  0  0  0  0  0  0  0  0
   -3.0000   -2.5981    0.0000 N   0  0  0  0  0  0  0  0  0  0  0  0
   -3.7500   -3.8971    0.0000 C   0  0  0  0  0  0  0  0  0  0  0  0
   -5.2500   -3.8971    0.0000 C   0  0  0  0  0  0  0  0  0  0  0  0
   -6.0000   -5.1962    0.0000 C   0  0  0  0  0  0  0  0  0  0  0  0
   -7.5000   -5.1962    0.0000 C   0  0  0  0  0  0  0  0  0  0  0  0
   -8.2500   -6.4952    0.0000 C   0  0  0  0  0  0  0  0  0  0  0  0
   -9.7500   -6.4952    0.0000 C   0  0  0  0  0  0  0  0  0  0  0  0
  -10.5000   -7.7942    0.0000 C   0  0  0  0  0  0  0  0  0  0  0  0
   -9.7500   -9.0933    0.0000 O   0  0  0  0  0  0  0  0  0  0  0  0
  -12.0000   -7.7942    0.0000 N   0  0  0  0  0  0  0  0  0  0  0  0
  -12.7500   -9.0933    0.0000 O   0  0  0  0  0  0  0  0  0  0  0  0
   -0.7500   -3.8971    0.0000 N   0  0  0  0  0  0  0  0  0  0  0  0
    0.7500   -3.8971    0.0000 N   0  0  0  0  0  0  0  0  0  0  0  0
    1.5000   -5.1962    0.0000 C   0  0  0  0  0  0  0  0  0  0  0  0
    0.7500   -6.4952    0.0000 O   0  0  0  0  0  0  0  0  0  0  0  0
    3.0000   -5.1962    0.0000 C   0  0  0  0  0  0  0  0  0  0  0  0
    3.7500   -6.4952    0.0000 C   0  0  0  0  0  0  0  0  0  0  0  0
  1  2  1  0
  2  3  2  0
  3  4  1  0
  4  5  2  0
  5  6  1  0
  6  7  2  0
  7  8  1  0
  8  9  2  0
  9 10  1  0
 10 11  2  0
 11 12  1  0
 12 13  2  0
 13 14  1  0
 14 15  1  0
 15 16  1  0
 16 17  1  0
 17 18  1  0
 18 19  1  0
 19 20  1  0
 20 21  1  0
 21 22  1  0
 22 23  2  0
 22 24  1  0
 24 25  1  0
 14 26  2  0
 26 27  1  0
 27 28  1  0
 28 29  2  0
 28 30  1  0
 30 31  2  0
 31  2  1  0
 30  5  1  0
 27  7  1  0
 13  8  1  0
M  END
>  <molecule_chembl_id>  (1151) 
CHEMBL5091856

>  <canonical_smiles>  (1151) 
Cc1ccc2nc3c4ccccc4c(NCCCCCCC(=O)NO)nn3c(=O)c2c1

>  <pchembl_value_mean>  (1151) 
7.79

>  <document_chembl_id>  (1151) 
CHEMBL5042505

$$$$

     RDKit          2D

 40 43  0  0  0  0  0  0  0  0999 V2000
   14.7990   -8.5442    0.0000 C   0  0  0  0  0  0  0  0  0  0  0  0
   13.2990   -8.5442    0.0000 C   0  0  0  0  0  0  0  0  0  0  0  0
   12.5490   -7.2452    0.0000 C   0  0  0  0  0  0  0  0  0  0  0  0
   13.2990   -5.9462    0.0000 O   0  0  0  0  0  0  0  0  0  0  0  0
   11.0490   -7.2452    0.0000 C   0  0  0  0  0  0  0  0  0  0  0  0
   10.2990   -5.9462    0.0000 C   0  0  0  0  0  0  0  0  0  0  0  0
    8.7990   -5.9462    0.0000 C   0  0  0  0  0  0  0  0  0  0  0  0
    8.0490   -4.6471    0.0000 C   0  0  0  0  0  0  0  0  0  0  0  0
    6.5490   -4.6471    0.0000 C   0  0  0  0  0  0  0  0  0  0  0  0
    5.7990   -3.3481    0.0000 C   0  0  0  0  0  0  0  0  0  0  0  0
    4.2990   -3.3481    0.0000 N   0  0  0  0  0  0  0  0  0  0  0  0
    3.5490   -2.0490    0.0000 C   0  0  0  0  0  0  0  0  0  0  0  0
    4.2990   -0.7500    0.0000 O   0  0  0  0  0  0  0  0  0  0  0  0
    2.0490   -2.0490    0.0000 C   0  0  0  0  0  0  0  0  0  0  0  0
    0.7500   -2.7990    0.0000 C   0  0  0  0  0  0  0  0  0  0  0  0
    0.7500   -1.2990    0.0000 C   0  0  0  0  0  0  0  0  0  0  0  0
    1.5000    0.0000    0.0000 C   0  0  0  0  0  0  0  0  0  0  0  0
    0.7500    1.2990    0.0000 C   0  0  0  0  0  0  0  0  0  0  0  0
   -0.7500    1.2990    0.0000 N   0  0  0  0  0  0  0  0  0  0  0  0
   -1.5000    2.5981    0.0000 C   0  0  0  0  0  0  0  0  0  0  0  0
   -0.7500    3.8971    0.0000 C   0  0  0  0  0  0  0  0  0  0  0  0
   -1.5000    0.0000    0.0000 C   0  0  0  0  0  0  0  0  0  0  0  0
   -0.7500   -1.2990    0.0000 C   0  0  0  0  0  0  0  0  0  0  0  0
    6.5490   -2.0490    0.0000 C   0  0  0  0  0  0  0  0  0  0  0  0
    5.9389   -0.6787    0.0000 N   0  0  0  0  0  0  0  0  0  0  0  0
    7.0537    0.3250    0.0000 C   0  0  0  0  0  0  0  0  0  0  0  0
    8.3527   -0.4250    0.0000 C   0  0  0  0  0  0  0  0  0  0  0  0
    9.7230    0.1851    0.0000 C   0  0  0  0  0  0  0  0  0  0  0  0
   10.9365   -0.6966    0.0000 C   0  0  0  0  0  0  0  0  0  0  0  0
   12.3069   -0.0865    0.0000 C   0  0  0  0  0  0  0  0  0  0  0  0
   13.5204   -0.9682    0.0000 C   0  0  0  0  0  0  0  0  0  0  0  0
   14.7339   -1.8498    0.0000 F   0  0  0  0  0  0  0  0  0  0  0  0
   12.6387   -2.1817    0.0000 F   0  0  0  0  0  0  0  0  0  0  0  0
   14.4021    0.2454    0.0000 F   0  0  0  0  0  0  0  0  0  0  0  0
   12.4636    1.4053    0.0000 C   0  0  0  0  0  0  0  0  0  0  0  0
   11.2501    2.2870    0.0000 C   0  0  0  0  0  0  0  0  0  0  0  0
    9.8798    1.6769    0.0000 C   0  0  0  0  0  0  0  0  0  0  0  0
    8.6663    2.5585    0.0000 O   0  0  0  0  0  0  0  0  0  0  0  0
    8.8231    4.0503    0.0000 C   0  0  0  0  0  0  0  0  0  0  0  0
    8.0408   -1.8922    0.0000 N   0  0  0  0  0  0  0  0  0  0  0  0
  1  2  1  0
  2  3  1  0
  3  4  2  0
  3  5  1  0
  5  6  1  0
  6  7  1  0
  7  8  1  0
  8  9  1  0
  9 10  1  0
 10 11  1  0
 11 12  1  0
 12 13  2  0
 12 14  1  0
 14 15  1  0
 15 16  1  0
 16 17  1  0
 17 18  1  0
 18 19  1  0
 19 20  1  0
 20 21  1  0
 19 22  1  0
 22 23  1  0
 10 24  1  0
 24 25  2  0
 25 26  1  0
 26 27  2  0
 27 28  1  0
 28 29  2  0
 29 30  1  0
 30 31  1  0
 31 32  1  0
 31 33  1  0
 31 34  1  0
 30 35  2  0
 35 36  1  0
 36 37  2  0
 37 38  1  0
 38 39  1  0
 27 40  1  0
 16 14  1  0
 40 24  1  0
 23 16  1  0
 37 28  1  0
M  END
>  <molecule_chembl_id>  (1152) 
CHEMBL4747553

>  <canonical_smiles>  (1152) 
CCC(=O)CCCCCC(NC(=O)C1CC12CCN(CC)CC2)c1ncc(-c2cc(C(F)(F)F)ccc2OC)[nH]1

>  <pchembl_value_mean>  (1152) 
7.8

>  <document_chembl_id>  (1152) 
CHEMBL4680369

$$$$

     RDKit          2D

 40 42  0  0  0  0  0  0  0  0999 V2000
   -3.7500    3.8971    0.0000 C   0  0  0  0  0  0  0  0  0  0  0  0
   -2.2500    3.8971    0.0000 C   0  0  0  0  0  0  0  0  0  0  0  0
   -1.5000    5.1962    0.0000 C   0  0  0  0  0  0  0  0  0  0  0  0
   -1.5000    2.5981    0.0000 S   0  0  0  0  0  0  0  0  0  0  0  0
   -0.2010    3.3481    0.0000 O   0  0  0  0  0  0  0  0  0  0  0  0
   -2.7990    1.8481    0.0000 O   0  0  0  0  0  0  0  0  0  0  0  0
   -0.7500    1.2990    0.0000 C   0  0  0  0  0  0  0  0  0  0  0  0
   -1.5000   -0.0000    0.0000 C   0  0  0  0  0  0  0  0  0  0  0  0
   -0.7500   -1.2990    0.0000 C   0  0  0  0  0  0  0  0  0  0  0  0
    0.7500   -1.2990    0.0000 C   0  0  0  0  0  0  0  0  0  0  0  0
    1.5000   -0.0000    0.0000 C   0  0  0  0  0  0  0  0  0  0  0  0
    0.7500    1.2990    0.0000 C   0  0  0  0  0  0  0  0  0  0  0  0
    1.5000    2.5981    0.0000 N   0  0  0  0  0  0  0  0  0  0  0  0
    3.0000    2.5981    0.0000 C   0  0  0  0  0  0  0  0  0  0  0  0
    3.7500    1.2990    0.0000 N   0  0  0  0  0  0  0  0  0  0  0  0
    5.2500    1.2990    0.0000 C   0  0  0  0  0  0  0  0  0  0  0  0
    6.0000   -0.0000    0.0000 N   0  0  0  0  0  0  0  0  0  0  0  0
    7.5000   -0.0000    0.0000 C   0  0  0  0  0  0  0  0  0  0  0  0
    8.2500   -1.2990    0.0000 C   0  0  0  0  0  0  0  0  0  0  0  0
    9.7500   -1.2990    0.0000 C   0  0  0  0  0  0  0  0  0  0  0  0
   10.5000   -0.0000    0.0000 C   0  0  0  0  0  0  0  0  0  0  0  0
   12.0000   -0.0000    0.0000 C   0  0  0  0  0  0  0  0  0  0  0  0
   12.7500    1.2990    0.0000 O   0  0  0  0  0  0  0  0  0  0  0  0
   12.7500   -1.2990    0.0000 N   0  0  0  0  0  0  0  0  0  0  0  0
   14.2500   -1.2990    0.0000 C   0  0  0  0  0  0  0  0  0  0  0  0
   15.0000   -2.5981    0.0000 C   0  0  0  0  0  0  0  0  0  0  0  0
   16.5000   -2.5981    0.0000 C   0  0  0  0  0  0  0  0  0  0  0  0
   17.2500   -3.8971    0.0000 C   0  0  0  0  0  0  0  0  0  0  0  0
   18.7500   -3.8971    0.0000 C   0  0  0  0  0  0  0  0  0  0  0  0
   19.5000   -5.1962    0.0000 C   0  0  0  0  0  0  0  0  0  0  0  0
   21.0000   -5.1962    0.0000 C   0  0  0  0  0  0  0  0  0  0  0  0
   21.7500   -3.8971    0.0000 O   0  0  0  0  0  0  0  0  0  0  0  0
   21.7500   -6.4952    0.0000 N   0  0  0  0  0  0  0  0  0  0  0  0
   23.2500   -6.4952    0.0000 O   0  0  0  0  0  0  0  0  0  0  0  0
    9.7500    1.2990    0.0000 C   0  0  0  0  0  0  0  0  0  0  0  0
    8.2500    1.2990    0.0000 C   0  0  0  0  0  0  0  0  0  0  0  0
    6.0000    2.5981    0.0000 N   0  0  0  0  0  0  0  0  0  0  0  0
    5.2500    3.8971    0.0000 C   0  0  0  0  0  0  0  0  0  0  0  0
    3.7500    3.8971    0.0000 C   0  0  0  0  0  0  0  0  0  0  0  0
    3.0000    5.1962    0.0000 Cl  0  0  0  0  0  0  0  0  0  0  0  0
  1  2  1  0
  2  3  1  0
  2  4  1  0
  4  5  2  0
  4  6  2  0
  4  7  1  0
  7  8  2  0
  8  9  1  0
  9 10  2  0
 10 11  1  0
 11 12  2  0
 12 13  1  0
 13 14  1  0
 14 15  2  0
 15 16  1  0
 16 17  1  0
 17 18  1  0
 18 19  2  0
 19 20  1  0
 20 21  2  0
 21 22  1  0
 22 23  2  0
 22 24  1  0
 24 25  1  0
 25 26  1  0
 26 27  1  0
 27 28  1  0
 28 29  1  0
 29 30  1  0
 30 31  1  0
 31 32  2  0
 31 33  1  0
 33 34  1  0
 21 35  1  0
 35 36  2  0
 16 37  2  0
 37 38  1  0
 38 39  2  0
 39 40  1  0
 12  7  1  0
 39 14  1  0
 36 18  1  0
M  END
>  <molecule_chembl_id>  (1153) 
CHEMBL4849606

>  <canonical_smiles>  (1153) 
CC(C)S(=O)(=O)c1ccccc1Nc1nc(Nc2ccc(C(=O)NCCCCCCC(=O)NO)cc2)ncc1Cl

>  <pchembl_value_mean>  (1153) 
7.82

>  <document_chembl_id>  (1153) 
CHEMBL4828709

$$$$

     RDKit          2D

 32 35  0  0  0  0  0  0  0  0999 V2000
    7.5000    2.5981    0.0000 C   0  0  0  0  0  0  0  0  0  0  0  0
    6.0000    2.5981    0.0000 N   0  0  0  0  0  0  0  0  0  0  0  0
    5.2500    3.8971    0.0000 C   0  0  0  0  0  0  0  0  0  0  0  0
    5.2500    1.2990    0.0000 C   0  0  0  0  0  0  0  0  0  0  0  0
    3.7500    1.2990    0.0000 C   0  0  0  0  0  0  0  0  0  0  0  0
    3.0000    0.0000    0.0000 N   0  0  0  0  0  0  0  0  0  0  0  0
    3.7500   -1.2990    0.0000 C   0  0  0  0  0  0  0  0  0  0  0  0
    1.5000    0.0000    0.0000 C   0  0  0  0  0  0  0  0  0  0  0  0
    0.7500   -1.2990    0.0000 C   0  0  0  0  0  0  0  0  0  0  0  0
   -0.7500   -1.2990    0.0000 C   0  0  0  0  0  0  0  0  0  0  0  0
   -1.5000    0.0000    0.0000 C   0  0  0  0  0  0  0  0  0  0  0  0
   -3.0000    0.0000    0.0000 C   0  0  0  0  0  0  0  0  0  0  0  0
   -3.7500    1.2990    0.0000 C   0  0  0  0  0  0  0  0  0  0  0  0
   -5.2500    1.2990    0.0000 C   0  0  0  0  0  0  0  0  0  0  0  0
   -6.0000    0.0000    0.0000 O   0  0  0  0  0  0  0  0  0  0  0  0
   -6.0000    2.5981    0.0000 N   0  0  0  0  0  0  0  0  0  0  0  0
   -7.5000    2.5981    0.0000 C   0  0  0  0  0  0  0  0  0  0  0  0
   -8.2500    3.8971    0.0000 C   0  0  0  0  0  0  0  0  0  0  0  0
   -9.7500    3.8971    0.0000 C   0  0  0  0  0  0  0  0  0  0  0  0
  -10.5000    5.1962    0.0000 C   0  0  0  0  0  0  0  0  0  0  0  0
  -11.9918    5.3529    0.0000 C   0  0  0  0  0  0  0  0  0  0  0  0
  -12.3037    6.8202    0.0000 C   0  0  0  0  0  0  0  0  0  0  0  0
  -11.0046    7.5702    0.0000 C   0  0  0  0  0  0  0  0  0  0  0  0
   -9.8899    6.5665    0.0000 S   0  0  0  0  0  0  0  0  0  0  0  0
  -10.5000    2.5981    0.0000 C   0  0  0  0  0  0  0  0  0  0  0  0
   -9.7500    1.2990    0.0000 C   0  0  0  0  0  0  0  0  0  0  0  0
   -8.2500    1.2990    0.0000 C   0  0  0  0  0  0  0  0  0  0  0  0
   -7.5000    0.0000    0.0000 N   0  0  0  0  0  0  0  0  0  0  0  0
   -3.0000    2.5981    0.0000 C   0  0  0  0  0  0  0  0  0  0  0  0
   -1.5000    2.5981    0.0000 N   0  0  0  0  0  0  0  0  0  0  0  0
   -0.7500    1.2990    0.0000 C   0  0  0  0  0  0  0  0  0  0  0  0
    0.7500    1.2990    0.0000 C   0  0  0  0  0  0  0  0  0  0  0  0
  1  2  1  0
  2  3  1  0
  2  4  1  0
  4  5  1  0
  5  6  1  0
  6  7  1  0
  6  8  1  0
  8  9  2  0
  9 10  1  0
 10 11  2  0
 11 12  1  0
 12 13  2  0
 13 14  1  0
 14 15  2  0
 14 16  1  0
 16 17  1  0
 17 18  2  0
 18 19  1  0
 19 20  1  0
 20 21  2  0
 21 22  1  0
 22 23  2  0
 23 24  1  0
 19 25  2  0
 25 26  1  0
 26 27  2  0
 27 28  1  0
 13 29  1  0
 29 30  2  0
 30 31  1  0
 31 32  2  0
 32  8  1  0
 31 11  1  0
 27 17  1  0
 24 20  1  0
M  END
>  <molecule_chembl_id>  (1154) 
CHEMBL4860757

>  <canonical_smiles>  (1154) 
CN(C)CCN(C)c1ccc2cc(C(=O)Nc3cc(-c4cccs4)ccc3N)cnc2c1

>  <pchembl_value_mean>  (1154) 
7.82

>  <document_chembl_id>  (1154) 
CHEMBL4828773

$$$$

     RDKit          2D

 26 28  0  0  0  0  0  0  0  0999 V2000
  -12.9904   -9.6073    0.0000 C   0  0  0  0  0  0  0  0  0  0  0  0
  -11.6913  -10.3573    0.0000 C   0  0  0  0  0  0  0  0  0  0  0  0
  -10.3923   -9.6073    0.0000 C   0  0  0  0  0  0  0  0  0  0  0  0
   -9.0933  -10.3573    0.0000 N   0  0  0  0  0  0  0  0  0  0  0  0
   -7.7942   -9.6073    0.0000 N   0  0  0  0  0  0  0  0  0  0  0  0
   -6.4952  -10.3573    0.0000 C   0  0  0  0  0  0  0  0  0  0  0  0
   -6.4952  -11.8573    0.0000 O   0  0  0  0  0  0  0  0  0  0  0  0
   -5.1962   -9.6073    0.0000 C   0  0  0  0  0  0  0  0  0  0  0  0
   -5.1962   -8.1073    0.0000 C   0  0  0  0  0  0  0  0  0  0  0  0
   -3.8971   -7.3573    0.0000 C   0  0  0  0  0  0  0  0  0  0  0  0
   -2.5981   -8.1073    0.0000 C   0  0  0  0  0  0  0  0  0  0  0  0
   -1.2990   -7.3573    0.0000 C   0  0  0  0  0  0  0  0  0  0  0  0
   -1.2990   -5.8573    0.0000 N   0  0  0  0  0  0  0  0  0  0  0  0
   -0.0000   -5.1073    0.0000 C   0  0  0  0  0  0  0  0  0  0  0  0
    1.2990   -5.8573    0.0000 O   0  0  0  0  0  0  0  0  0  0  0  0
   -0.0000   -3.6073    0.0000 C   0  0  0  0  0  0  0  0  0  0  0  0
    1.2135   -2.7256    0.0000 C   0  0  0  0  0  0  0  0  0  0  0  0
    0.7500   -1.2990    0.0000 C   0  0  0  0  0  0  0  0  0  0  0  0
    1.5000    0.0000    0.0000 C   0  0  0  0  0  0  0  0  0  0  0  0
    0.7500    1.2990    0.0000 C   0  0  0  0  0  0  0  0  0  0  0  0
   -0.7500    1.2990    0.0000 C   0  0  0  0  0  0  0  0  0  0  0  0
   -1.5000    0.0000    0.0000 C   0  0  0  0  0  0  0  0  0  0  0  0
   -0.7500   -1.2990    0.0000 C   0  0  0  0  0  0  0  0  0  0  0  0
   -1.2135   -2.7256    0.0000 O   0  0  0  0  0  0  0  0  0  0  0  0
   -2.5981   -9.6073    0.0000 C   0  0  0  0  0  0  0  0  0  0  0  0
   -3.8971  -10.3573    0.0000 C   0  0  0  0  0  0  0  0  0  0  0  0
  1  2  1  0
  2  3  1  0
  3  4  1  0
  4  5  1  0
  5  6  1  0
  6  7  2  0
  6  8  1  0
  8  9  2  0
  9 10  1  0
 10 11  2  0
 11 12  1  0
 12 13  1  0
 13 14  1  0
 14 15  2  0
 14 16  1  0
 16 17  2  0
 17 18  1  0
 18 19  2  0
 19 20  1  0
 20 21  2  0
 21 22  1  0
 22 23  2  0
 23 24  1  0
 11 25  1  0
 25 26  2  0
 26  8  1  0
 24 16  1  0
 23 18  1  0
M  END
>  <molecule_chembl_id>  (1155) 
CHEMBL5078985

>  <canonical_smiles>  (1155) 
CCCNNC(=O)c1ccc(CNC(=O)c2cc3ccccc3o2)cc1

>  <pchembl_value_mean>  (1155) 
7.82

>  <document_chembl_id>  (1155) 
CHEMBL5042504

$$$$

     RDKit          2D

 35 40  0  0  0  0  0  0  0  0999 V2000
    3.7500   -3.8971    0.0000 N   0  0  0  0  0  0  0  0  0  0  0  0
    3.0000   -5.1962    0.0000 C   0  0  0  0  0  0  0  0  0  0  0  0
    3.7500   -6.4952    0.0000 C   0  0  0  0  0  0  0  0  0  0  0  0
    3.0000   -7.7942    0.0000 C   0  0  0  0  0  0  0  0  0  0  0  0
    1.5000   -7.7942    0.0000 C   0  0  0  0  0  0  0  0  0  0  0  0
    0.7500   -9.0933    0.0000 C   0  0  0  0  0  0  0  0  0  0  0  0
   -0.7500   -9.0933    0.0000 C   0  0  0  0  0  0  0  0  0  0  0  0
   -1.5000  -10.3923    0.0000 C   0  0  0  0  0  0  0  0  0  0  0  0
   -0.7500  -11.6913    0.0000 C   0  0  0  0  0  0  0  0  0  0  0  0
    0.7500  -11.6913    0.0000 C   0  0  0  0  0  0  0  0  0  0  0  0
    1.5000  -10.3923    0.0000 C   0  0  0  0  0  0  0  0  0  0  0  0
    0.7500   -6.4952    0.0000 C   0  0  0  0  0  0  0  0  0  0  0  0
    1.5000   -5.1962    0.0000 C   0  0  0  0  0  0  0  0  0  0  0  0
    0.7500   -3.8971    0.0000 N   0  0  0  0  0  0  0  0  0  0  0  0
    1.5000   -2.5981    0.0000 C   0  0  0  0  0  0  0  0  0  0  0  0
    3.0000   -2.5981    0.0000 O   0  0  0  0  0  0  0  0  0  0  0  0
    0.7500   -1.2990    0.0000 C   0  0  0  0  0  0  0  0  0  0  0  0
    1.5000    0.0000    0.0000 C   0  0  0  0  0  0  0  0  0  0  0  0
    0.7500    1.2990    0.0000 N   0  0  0  0  0  0  0  0  0  0  0  0
   -0.7500    1.2990    0.0000 C   0  0  0  0  0  0  0  0  0  0  0  0
   -1.5000    2.5981    0.0000 C   0  0  0  0  0  0  0  0  0  0  0  0
   -0.7500    3.8971    0.0000 C   0  0  0  0  0  0  0  0  0  0  0  0
   -0.7500    5.3971    0.0000 C   0  0  0  0  0  0  0  0  0  0  0  0
    0.5490    4.6471    0.0000 C   0  0  0  0  0  0  0  0  0  0  0  0
   -3.0000    2.5981    0.0000 C   0  0  0  0  0  0  0  0  0  0  0  0
   -3.7500    3.8971    0.0000 N   0  0  0  0  0  0  0  0  0  0  0  0
   -3.0000    5.1962    0.0000 C   0  0  0  0  0  0  0  0  0  0  0  0
   -3.7500    6.4952    0.0000 C   0  0  0  0  0  0  0  0  0  0  0  0
   -5.2500    6.4952    0.0000 N   0  0  0  0  0  0  0  0  0  0  0  0
   -6.0000    5.1962    0.0000 C   0  0  0  0  0  0  0  0  0  0  0  0
   -5.2500    3.8971    0.0000 C   0  0  0  0  0  0  0  0  0  0  0  0
   -3.7500    1.2990    0.0000 C   0  0  0  0  0  0  0  0  0  0  0  0
   -3.0000    0.0000    0.0000 C   0  0  0  0  0  0  0  0  0  0  0  0
   -1.5000    0.0000    0.0000 C   0  0  0  0  0  0  0  0  0  0  0  0
   -0.7500   -1.2990    0.0000 C   0  0  0  0  0  0  0  0  0  0  0  0
  1  2  1  0
  2  3  2  0
  3  4  1  0
  4  5  2  0
  5  6  1  0
  6  7  2  0
  7  8  1  0
  8  9  2  0
  9 10  1  0
 10 11  2  0
  5 12  1  0
 12 13  2  0
 13 14  1  0
 14 15  1  0
 15 16  2  0
 15 17  1  0
 17 18  2  0
 18 19  1  0
 19 20  2  0
 20 21  1  0
 21 22  1  0
 22 23  1  0
 23 24  1  0
 21 25  2  0
 25 26  1  0
 26 27  1  0
 27 28  1  0
 28 29  1  0
 29 30  1  0
 30 31  1  0
 25 32  1  0
 32 33  2  0
 33 34  1  0
 34 35  2  0
 13  2  1  0
 35 17  1  0
 11  6  1  0
 34 20  1  0
 24 22  1  0
 31 26  1  0
M  END
>  <molecule_chembl_id>  (1156) 
CHEMBL3951875

>  <canonical_smiles>  (1156) 
Nc1ccc(-c2ccccc2)cc1NC(=O)c1cnc2c(C3CC3)c(N3CCNCC3)ccc2c1

>  <pchembl_value_mean>  (1156) 
7.82

>  <document_chembl_id>  (1156) 
CHEMBL3886267

$$$$

     RDKit          2D

 26 28  0  0  0  0  0  0  0  0999 V2000
    9.0000   -5.1962    0.0000 O   0  0  0  0  0  0  0  0  0  0  0  0
    8.2500   -6.4952    0.0000 C   0  0  0  0  0  0  0  0  0  0  0  0
    6.7500   -6.4952    0.0000 C   0  0  0  0  0  0  0  0  0  0  0  0
    6.0000   -5.1962    0.0000 C   0  0  0  0  0  0  0  0  0  0  0  0
    4.5000   -5.1962    0.0000 C   0  0  0  0  0  0  0  0  0  0  0  0
    3.7500   -6.4952    0.0000 C   0  0  0  0  0  0  0  0  0  0  0  0
    2.2500   -6.4952    0.0000 C   0  0  0  0  0  0  0  0  0  0  0  0
    1.5000   -5.1962    0.0000 C   0  0  0  0  0  0  0  0  0  0  0  0
    2.2500   -3.8971    0.0000 C   0  0  0  0  0  0  0  0  0  0  0  0
    1.5000   -2.5981    0.0000 S   0  0  0  0  0  0  0  0  0  0  0  0
    2.7990   -1.8481    0.0000 O   0  0  0  0  0  0  0  0  0  0  0  0
    0.2010   -3.3481    0.0000 O   0  0  0  0  0  0  0  0  0  0  0  0
    0.7500   -1.2990    0.0000 C   0  0  0  0  0  0  0  0  0  0  0  0
    1.5000    0.0000    0.0000 C   0  0  0  0  0  0  0  0  0  0  0  0
    0.7500    1.2990    0.0000 C   0  0  0  0  0  0  0  0  0  0  0  0
   -0.7500    1.2990    0.0000 C   0  0  0  0  0  0  0  0  0  0  0  0
   -1.5000    2.5981    0.0000 C   0  0  0  0  0  0  0  0  0  0  0  0
   -3.0000    2.5981    0.0000 C   0  0  0  0  0  0  0  0  0  0  0  0
   -3.7500    1.2990    0.0000 C   0  0  0  0  0  0  0  0  0  0  0  0
   -3.0000    0.0000    0.0000 C   0  0  0  0  0  0  0  0  0  0  0  0
   -3.7500   -1.2990    0.0000 F   0  0  0  0  0  0  0  0  0  0  0  0
   -1.5000    0.0000    0.0000 C   0  0  0  0  0  0  0  0  0  0  0  0
   -0.7500   -1.2990    0.0000 N   0  0  0  0  0  0  0  0  0  0  0  0
    3.7500   -3.8971    0.0000 C   0  0  0  0  0  0  0  0  0  0  0  0
    9.0000   -7.7942    0.0000 N   0  0  0  0  0  0  0  0  0  0  0  0
   10.5000   -7.7942    0.0000 O   0  0  0  0  0  0  0  0  0  0  0  0
  1  2  2  0
  2  3  1  0
  3  4  2  3
  4  5  1  0
  5  6  2  0
  6  7  1  0
  7  8  2  0
  8  9  1  0
  9 10  1  0
 10 11  2  0
 10 12  2  0
 10 13  1  0
 13 14  2  0
 14 15  1  0
 15 16  2  0
 16 17  1  0
 17 18  2  0
 18 19  1  0
 19 20  2  0
 20 21  1  0
 20 22  1  0
 22 23  2  0
  9 24  2  0
  2 25  1  0
 25 26  1  0
 24  5  1  0
 23 13  1  0
 22 16  1  0
M  END
>  <molecule_chembl_id>  (1157) 
CHEMBL3925939

>  <canonical_smiles>  (1157) 
O=C(C=Cc1cccc(S(=O)(=O)c2ccc3cccc(F)c3n2)c1)NO

>  <pchembl_value_mean>  (1157) 
7.82

>  <document_chembl_id>  (1157) 
CHEMBL3865790

$$$$

     RDKit          2D

 26 27  0  0  0  0  0  0  0  0999 V2000
   12.0000   -7.7942    0.0000 O   0  0  0  0  0  0  0  0  0  0  0  0
   12.7500   -6.4952    0.0000 C   0  0  0  0  0  0  0  0  0  0  0  0
   12.0000   -5.1962    0.0000 C   0  0  0  0  0  0  0  0  0  0  0  0
   10.5000   -5.1962    0.0000 C   0  0  0  0  0  0  0  0  0  0  0  0
    9.7500   -3.8971    0.0000 C   0  0  0  0  0  0  0  0  0  0  0  0
    8.2500   -3.8971    0.0000 C   0  0  0  0  0  0  0  0  0  0  0  0
    7.5000   -2.5981    0.0000 C   0  0  0  0  0  0  0  0  0  0  0  0
    6.0000   -2.5981    0.0000 C   0  0  0  0  0  0  0  0  0  0  0  0
    5.2500   -3.8971    0.0000 O   0  0  0  0  0  0  0  0  0  0  0  0
    5.2500   -1.2990    0.0000 N   0  0  0  0  0  0  0  0  0  0  0  0
    3.7500   -1.2990    0.0000 N   0  0  0  0  0  0  0  0  0  0  0  0
    3.0000    0.0000    0.0000 C   0  0  0  0  0  0  0  0  0  0  0  0
    1.5000    0.0000    0.0000 C   0  0  0  0  0  0  0  0  0  0  0  0
    0.7500   -1.2990    0.0000 C   0  0  0  0  0  0  0  0  0  0  0  0
   -0.7500   -1.2990    0.0000 C   0  0  0  0  0  0  0  0  0  0  0  0
   -1.5000    0.0000    0.0000 C   0  0  0  0  0  0  0  0  0  0  0  0
   -3.0000    0.0000    0.0000 C   0  0  0  0  0  0  0  0  0  0  0  0
   -3.7500    1.2990    0.0000 C   0  0  0  0  0  0  0  0  0  0  0  0
   -5.2500    1.2990    0.0000 C   0  0  0  0  0  0  0  0  0  0  0  0
   -6.0000    0.0000    0.0000 N   0  0  0  0  0  0  0  0  0  0  0  0
   -5.2500   -1.2990    0.0000 C   0  0  0  0  0  0  0  0  0  0  0  0
   -3.7500   -1.2990    0.0000 C   0  0  0  0  0  0  0  0  0  0  0  0
   -0.7500    1.2990    0.0000 C   0  0  0  0  0  0  0  0  0  0  0  0
    0.7500    1.2990    0.0000 C   0  0  0  0  0  0  0  0  0  0  0  0
   14.2500   -6.4952    0.0000 N   0  0  0  0  0  0  0  0  0  0  0  0
   15.0000   -7.7942    0.0000 O   0  0  0  0  0  0  0  0  0  0  0  0
  1  2  2  0
  2  3  1  0
  3  4  1  0
  4  5  1  0
  5  6  1  0
  6  7  1  0
  7  8  1  0
  8  9  2  0
  8 10  1  0
 10 11  1  0
 11 12  2  3
 12 13  1  0
 13 14  2  0
 14 15  1  0
 15 16  2  0
 16 17  1  0
 17 18  2  0
 18 19  1  0
 19 20  2  0
 20 21  1  0
 21 22  2  0
 16 23  1  0
 23 24  2  0
  2 25  1  0
 25 26  1  0
 24 13  1  0
 22 17  1  0
M  END
>  <molecule_chembl_id>  (1158) 
CHEMBL3758281

>  <canonical_smiles>  (1158) 
O=C(CCCCCC(=O)NN=Cc1ccc(-c2ccncc2)cc1)NO

>  <pchembl_value_mean>  (1158) 
7.85

>  <document_chembl_id>  (1158) 
CHEMBL3758132

$$$$

     RDKit          2D

 25 28  0  0  0  0  0  0  0  0999 V2000
    3.7500    1.2990    0.0000 O   0  0  0  0  0  0  0  0  0  0  0  0
    3.0000    0.0000    0.0000 C   0  0  0  0  0  0  0  0  0  0  0  0
    3.7500   -1.2990    0.0000 N   0  0  0  0  0  0  0  0  0  0  0  0
    5.2500   -1.2990    0.0000 O   0  0  0  0  0  0  0  0  0  0  0  0
    1.5000    0.0000    0.0000 C   0  0  0  0  0  0  0  0  0  0  0  0
    0.7500   -1.2990    0.0000 C   0  0  0  0  0  0  0  0  0  0  0  0
   -0.7500   -1.2990    0.0000 N   0  0  0  0  0  0  0  0  0  0  0  0
   -1.5000    0.0000    0.0000 C   0  0  0  0  0  0  0  0  0  0  0  0
   -3.0000    0.0000    0.0000 N   0  0  0  0  0  0  0  0  0  0  0  0
   -3.8817   -1.2135    0.0000 C   0  0  0  0  0  0  0  0  0  0  0  0
   -5.3083   -0.7500    0.0000 C   0  0  0  0  0  0  0  0  0  0  0  0
   -5.3083    0.7500    0.0000 C   0  0  0  0  0  0  0  0  0  0  0  0
   -3.8817    1.2135    0.0000 C   0  0  0  0  0  0  0  0  0  0  0  0
   -6.6073    0.0000    0.0000 C   0  0  0  0  0  0  0  0  0  0  0  0
   -8.1073    0.0000    0.0000 N   0  0  0  0  0  0  0  0  0  0  0  0
   -8.8573    1.2990    0.0000 C   0  0  0  0  0  0  0  0  0  0  0  0
  -10.3573    1.2990    0.0000 C   0  0  0  0  0  0  0  0  0  0  0  0
  -11.1073    2.5981    0.0000 C   0  0  0  0  0  0  0  0  0  0  0  0
  -12.6073    2.5981    0.0000 C   0  0  0  0  0  0  0  0  0  0  0  0
  -13.3573    1.2990    0.0000 C   0  0  0  0  0  0  0  0  0  0  0  0
  -14.8573    1.2990    0.0000 Cl  0  0  0  0  0  0  0  0  0  0  0  0
  -12.6073    0.0000    0.0000 C   0  0  0  0  0  0  0  0  0  0  0  0
  -11.1073    0.0000    0.0000 C   0  0  0  0  0  0  0  0  0  0  0  0
   -0.7500    1.2990    0.0000 N   0  0  0  0  0  0  0  0  0  0  0  0
    0.7500    1.2990    0.0000 C   0  0  0  0  0  0  0  0  0  0  0  0
  1  2  2  0
  2  3  1  0
  3  4  1  0
  2  5  1  0
  5  6  2  0
  6  7  1  0
  7  8  2  0
  8  9  1  0
  9 10  1  0
 10 11  1  0
 11 12  1  0
 12 13  1  0
 12 14  1  0
 14 15  1  0
 15 16  1  0
 16 17  1  0
 17 18  2  0
 18 19  1  0
 19 20  2  0
 20 21  1  0
 20 22  1  0
 22 23  2  0
  8 24  1  0
 24 25  2  0
 25  5  1  0
 13  9  1  0
 23 17  1  0
 14 11  1  0
M  END
>  <molecule_chembl_id>  (1159) 
CHEMBL1801238

>  <canonical_smiles>  (1159) 
O=C(NO)c1cnc(N2CC3C(C2)C3NCc2ccc(Cl)cc2)nc1

>  <pchembl_value_mean>  (1159) 
7.85

>  <document_chembl_id>  (1159) 
CHEMBL1800056

$$$$

     RDKit          2D

 34 39  0  0  0  0  0  0  0  0999 V2000
    3.7500   -3.8971    0.0000 N   0  0  0  0  0  0  0  0  0  0  0  0
    3.0000   -5.1962    0.0000 C   0  0  0  0  0  0  0  0  0  0  0  0
    3.7500   -6.4952    0.0000 C   0  0  0  0  0  0  0  0  0  0  0  0
    3.0000   -7.7942    0.0000 C   0  0  0  0  0  0  0  0  0  0  0  0
    1.5000   -7.7942    0.0000 C   0  0  0  0  0  0  0  0  0  0  0  0
    0.7500   -9.0933    0.0000 C   0  0  0  0  0  0  0  0  0  0  0  0
    1.3601  -10.4636    0.0000 C   0  0  0  0  0  0  0  0  0  0  0  0
    0.2454  -11.4673    0.0000 C   0  0  0  0  0  0  0  0  0  0  0  0
   -1.0537  -10.7173    0.0000 C   0  0  0  0  0  0  0  0  0  0  0  0
   -0.7418   -9.2501    0.0000 S   0  0  0  0  0  0  0  0  0  0  0  0
    0.7500   -6.4952    0.0000 C   0  0  0  0  0  0  0  0  0  0  0  0
    1.5000   -5.1962    0.0000 C   0  0  0  0  0  0  0  0  0  0  0  0
    0.7500   -3.8971    0.0000 N   0  0  0  0  0  0  0  0  0  0  0  0
    1.5000   -2.5981    0.0000 C   0  0  0  0  0  0  0  0  0  0  0  0
    3.0000   -2.5981    0.0000 O   0  0  0  0  0  0  0  0  0  0  0  0
    0.7500   -1.2990    0.0000 C   0  0  0  0  0  0  0  0  0  0  0  0
    1.5000    0.0000    0.0000 C   0  0  0  0  0  0  0  0  0  0  0  0
    0.7500    1.2990    0.0000 N   0  0  0  0  0  0  0  0  0  0  0  0
   -0.7500    1.2990    0.0000 C   0  0  0  0  0  0  0  0  0  0  0  0
   -1.5000    2.5981    0.0000 C   0  0  0  0  0  0  0  0  0  0  0  0
   -0.7500    3.8971    0.0000 C   0  0  0  0  0  0  0  0  0  0  0  0
   -0.7500    5.3971    0.0000 C   0  0  0  0  0  0  0  0  0  0  0  0
    0.5490    4.6471    0.0000 C   0  0  0  0  0  0  0  0  0  0  0  0
   -3.0000    2.5981    0.0000 C   0  0  0  0  0  0  0  0  0  0  0  0
   -3.7500    3.8971    0.0000 N   0  0  0  0  0  0  0  0  0  0  0  0
   -3.0000    5.1962    0.0000 C   0  0  0  0  0  0  0  0  0  0  0  0
   -3.7500    6.4952    0.0000 C   0  0  0  0  0  0  0  0  0  0  0  0
   -5.2500    6.4952    0.0000 N   0  0  0  0  0  0  0  0  0  0  0  0
   -6.0000    5.1962    0.0000 C   0  0  0  0  0  0  0  0  0  0  0  0
   -5.2500    3.8971    0.0000 C   0  0  0  0  0  0  0  0  0  0  0  0
   -3.7500    1.2990    0.0000 C   0  0  0  0  0  0  0  0  0  0  0  0
   -3.0000    0.0000    0.0000 C   0  0  0  0  0  0  0  0  0  0  0  0
   -1.5000    0.0000    0.0000 C   0  0  0  0  0  0  0  0  0  0  0  0
   -0.7500   -1.2990    0.0000 C   0  0  0  0  0  0  0  0  0  0  0  0
  1  2  1  0
  2  3  2  0
  3  4  1  0
  4  5  2  0
  5  6  1  0
  6  7  2  0
  7  8  1  0
  8  9  2  0
  9 10  1  0
  5 11  1  0
 11 12  2  0
 12 13  1  0
 13 14  1  0
 14 15  2  0
 14 16  1  0
 16 17  2  0
 17 18  1  0
 18 19  2  0
 19 20  1  0
 20 21  1  0
 21 22  1  0
 22 23  1  0
 20 24  2  0
 24 25  1  0
 25 26  1  0
 26 27  1  0
 27 28  1  0
 28 29  1  0
 29 30  1  0
 24 31  1  0
 31 32  2  0
 32 33  1  0
 33 34  2  0
 12  2  1  0
 34 16  1  0
 10  6  1  0
 33 19  1  0
 23 21  1  0
 30 25  1  0
M  END
>  <molecule_chembl_id>  (1160) 
CHEMBL3971229

>  <canonical_smiles>  (1160) 
Nc1ccc(-c2cccs2)cc1NC(=O)c1cnc2c(C3CC3)c(N3CCNCC3)ccc2c1

>  <pchembl_value_mean>  (1160) 
7.85

>  <document_chembl_id>  (1160) 
CHEMBL3886267

$$$$

     RDKit          2D

 26 27  0  0  0  0  0  0  0  0999 V2000
    3.0000    0.0000    0.0000 C   0  0  0  0  0  0  0  0  0  0  0  0
    1.5000    0.0000    0.0000 C   0  0  0  0  0  0  0  0  0  0  0  0
    0.7500   -1.2990    0.0000 C   0  0  0  0  0  0  0  0  0  0  0  0
   -0.7500   -1.2990    0.0000 C   0  0  0  0  0  0  0  0  0  0  0  0
   -1.5000    0.0000    0.0000 C   0  0  0  0  0  0  0  0  0  0  0  0
   -0.7500    1.2990    0.0000 C   0  0  0  0  0  0  0  0  0  0  0  0
   -1.5000    2.5981    0.0000 N   0  0  0  0  0  0  0  0  0  0  0  0
   -0.7500    3.8971    0.0000 C   0  0  0  0  0  0  0  0  0  0  0  0
    0.7500    3.8971    0.0000 O   0  0  0  0  0  0  0  0  0  0  0  0
   -1.5000    5.1962    0.0000 C   0  0  0  0  0  0  0  0  0  0  0  0
   -0.7500    6.4952    0.0000 C   0  0  0  0  0  0  0  0  0  0  0  0
   -1.5000    7.7942    0.0000 C   0  0  0  0  0  0  0  0  0  0  0  0
   -0.7500    9.0933    0.0000 C   0  0  0  0  0  0  0  0  0  0  0  0
   -1.5000   10.3923    0.0000 C   0  0  0  0  0  0  0  0  0  0  0  0
   -0.7500   11.6913    0.0000 C   0  0  0  0  0  0  0  0  0  0  0  0
   -1.5000   12.9904    0.0000 S   0  0  0  0  0  0  0  0  0  0  0  0
   -3.0000    5.1962    0.0000 N   0  0  0  0  0  0  0  0  0  0  0  0
   -3.7500    6.4952    0.0000 C   0  0  0  0  0  0  0  0  0  0  0  0
   -3.0000    7.7942    0.0000 O   0  0  0  0  0  0  0  0  0  0  0  0
   -5.2500    6.4952    0.0000 C   0  0  0  0  0  0  0  0  0  0  0  0
   -6.1317    5.2817    0.0000 C   0  0  0  0  0  0  0  0  0  0  0  0
   -7.5583    5.7452    0.0000 C   0  0  0  0  0  0  0  0  0  0  0  0
   -7.5583    7.2452    0.0000 C   0  0  0  0  0  0  0  0  0  0  0  0
   -8.7718    8.1269    0.0000 O   0  0  0  0  0  0  0  0  0  0  0  0
   -6.1317    7.7087    0.0000 N   0  0  0  0  0  0  0  0  0  0  0  0
    0.7500    1.2990    0.0000 C   0  0  0  0  0  0  0  0  0  0  0  0
  1  2  1  0
  2  3  2  0
  3  4  1  0
  4  5  2  0
  5  6  1  0
  6  7  1  0
  7  8  1  0
  8  9  2  0
  8 10  1  0
 10 11  1  0
 11 12  1  0
 12 13  1  0
 13 14  1  0
 14 15  1  0
 15 16  1  0
 10 17  1  0
 17 18  1  0
 18 19  2  0
 18 20  1  0
 20 21  1  0
 21 22  1  0
 22 23  1  0
 23 24  2  0
 23 25  1  0
  6 26  2  0
 26  2  1  0
 25 20  1  0
M  END
>  <molecule_chembl_id>  (1161) 
CHEMBL3356923

>  <canonical_smiles>  (1161) 
Cc1cccc(NC(=O)C(CCCCCS)NC(=O)C2CCC(=O)N2)c1

>  <pchembl_value_mean>  (1161) 
7.87

>  <document_chembl_id>  (1161) 
CHEMBL3352570

$$$$

     RDKit          2D

 44 48  0  0  0  0  0  0  0  0999 V2000
   10.7824  -15.8378    0.0000 C   0  0  0  0  0  0  0  0  0  0  0  0
    9.4121  -15.2277    0.0000 C   0  0  0  0  0  0  0  0  0  0  0  0
    9.2553  -13.7359    0.0000 C   0  0  0  0  0  0  0  0  0  0  0  0
   10.4688  -12.8543    0.0000 O   0  0  0  0  0  0  0  0  0  0  0  0
    7.8850  -13.1258    0.0000 C   0  0  0  0  0  0  0  0  0  0  0  0
    7.7282  -11.6340    0.0000 C   0  0  0  0  0  0  0  0  0  0  0  0
    6.3579  -11.0239    0.0000 C   0  0  0  0  0  0  0  0  0  0  0  0
    6.2011   -9.5322    0.0000 C   0  0  0  0  0  0  0  0  0  0  0  0
    4.8308   -8.9221    0.0000 C   0  0  0  0  0  0  0  0  0  0  0  0
    4.6740   -7.4303    0.0000 C   0  0  0  0  0  0  0  0  0  0  0  0
    5.8875   -6.5486    0.0000 N   0  0  0  0  0  0  0  0  0  0  0  0
    7.2578   -7.1587    0.0000 C   0  0  0  0  0  0  0  0  0  0  0  0
    7.4146   -8.6505    0.0000 O   0  0  0  0  0  0  0  0  0  0  0  0
    8.4713   -6.2770    0.0000 C   0  0  0  0  0  0  0  0  0  0  0  0
    9.0814   -4.9067    0.0000 C   0  0  0  0  0  0  0  0  0  0  0  0
    9.9631   -6.1202    0.0000 C   0  0  0  0  0  0  0  0  0  0  0  0
   10.1199   -7.6120    0.0000 C   0  0  0  0  0  0  0  0  0  0  0  0
   11.4902   -8.2221    0.0000 C   0  0  0  0  0  0  0  0  0  0  0  0
   12.7038   -7.3404    0.0000 N   0  0  0  0  0  0  0  0  0  0  0  0
   14.0741   -7.9505    0.0000 C   0  0  0  0  0  0  0  0  0  0  0  0
   14.2309   -9.4423    0.0000 C   0  0  0  0  0  0  0  0  0  0  0  0
   15.6012  -10.0524    0.0000 C   0  0  0  0  0  0  0  0  0  0  0  0
   16.9715  -10.6625    0.0000 F   0  0  0  0  0  0  0  0  0  0  0  0
   14.9911  -11.4227    0.0000 F   0  0  0  0  0  0  0  0  0  0  0  0
   16.2113   -8.6821    0.0000 F   0  0  0  0  0  0  0  0  0  0  0  0
   12.5470   -5.8487    0.0000 C   0  0  0  0  0  0  0  0  0  0  0  0
   11.1766   -5.2386    0.0000 C   0  0  0  0  0  0  0  0  0  0  0  0
    3.3037   -6.8202    0.0000 C   0  0  0  0  0  0  0  0  0  0  0  0
    2.0046   -7.5702    0.0000 N   0  0  0  0  0  0  0  0  0  0  0  0
    0.8899   -6.5665    0.0000 C   0  0  0  0  0  0  0  0  0  0  0  0
    1.5000   -5.1962    0.0000 C   0  0  0  0  0  0  0  0  0  0  0  0
    0.7500   -3.8971    0.0000 C   0  0  0  0  0  0  0  0  0  0  0  0
    1.5000   -2.5981    0.0000 C   0  0  0  0  0  0  0  0  0  0  0  0
    0.7500   -1.2990    0.0000 C   0  0  0  0  0  0  0  0  0  0  0  0
    1.5000    0.0000    0.0000 C   0  0  0  0  0  0  0  0  0  0  0  0
    0.7500    1.2990    0.0000 C   0  0  0  0  0  0  0  0  0  0  0  0
   -0.7500    1.2990    0.0000 C   0  0  0  0  0  0  0  0  0  0  0  0
   -1.5000    0.0000    0.0000 C   0  0  0  0  0  0  0  0  0  0  0  0
   -0.7500   -1.2990    0.0000 C   0  0  0  0  0  0  0  0  0  0  0  0
   -1.5000   -2.5981    0.0000 N   0  0  0  0  0  0  0  0  0  0  0  0
   -0.7500   -3.8971    0.0000 C   0  0  0  0  0  0  0  0  0  0  0  0
   -1.5000   -5.1962    0.0000 O   0  0  0  0  0  0  0  0  0  0  0  0
   -3.0000   -5.1962    0.0000 C   0  0  0  0  0  0  0  0  0  0  0  0
    2.9918   -5.3529    0.0000 N   0  0  0  0  0  0  0  0  0  0  0  0
  1  2  1  0
  2  3  1  0
  3  4  2  0
  3  5  1  0
  5  6  1  0
  6  7  1  0
  7  8  1  0
  8  9  1  0
  9 10  1  0
 10 11  1  0
 11 12  1  0
 12 13  2  0
 12 14  1  0
 14 15  1  0
 15 16  1  0
 16 17  1  0
 17 18  1  0
 18 19  1  0
 19 20  1  0
 20 21  1  0
 21 22  1  0
 22 23  1  0
 22 24  1  0
 22 25  1  0
 19 26  1  0
 26 27  1  0
 10 28  1  0
 28 29  2  0
 29 30  1  0
 30 31  2  0
 31 32  1  0
 32 33  2  0
 33 34  1  0
 34 35  2  0
 35 36  1  0
 36 37  2  0
 37 38  1  0
 38 39  2  0
 39 40  1  0
 40 41  2  0
 41 42  1  0
 42 43  1  0
 31 44  1  0
 16 14  1  0
 44 28  1  0
 27 16  1  0
 41 32  1  0
 39 34  1  0
M  END
>  <molecule_chembl_id>  (1162) 
CHEMBL4643947

>  <canonical_smiles>  (1162) 
CCC(=O)CCCCCC(NC(=O)C1CC12CCN(CCC(F)(F)F)CC2)c1ncc(-c2cc3ccccc3nc2OC)[nH]1

>  <pchembl_value_mean>  (1162) 
7.88

>  <document_chembl_id>  (1162) 
CHEMBL4622849

$$$$

     RDKit          2D

 28 30  0  0  0  0  0  0  0  0999 V2000
  -10.7086   -9.9084    0.0000 O   0  0  0  0  0  0  0  0  0  0  0  0
   -9.5939  -10.9121    0.0000 C   0  0  0  0  0  0  0  0  0  0  0  0
   -8.1673  -10.4486    0.0000 C   0  0  0  0  0  0  0  0  0  0  0  0
   -7.8555   -8.9814    0.0000 C   0  0  0  0  0  0  0  0  0  0  0  0
   -6.4289   -8.5179    0.0000 C   0  0  0  0  0  0  0  0  0  0  0  0
   -6.1170   -7.0506    0.0000 C   0  0  0  0  0  0  0  0  0  0  0  0
   -4.6904   -6.5871    0.0000 C   0  0  0  0  0  0  0  0  0  0  0  0
   -4.3786   -5.1199    0.0000 C   0  0  0  0  0  0  0  0  0  0  0  0
   -2.9520   -4.6564    0.0000 C   0  0  0  0  0  0  0  0  0  0  0  0
   -1.8373   -5.6601    0.0000 O   0  0  0  0  0  0  0  0  0  0  0  0
   -2.6401   -3.1891    0.0000 N   0  0  0  0  0  0  0  0  0  0  0  0
   -1.2135   -2.7256    0.0000 C   0  0  0  0  0  0  0  0  0  0  0  0
   -0.0000   -3.6073    0.0000 N   0  0  0  0  0  0  0  0  0  0  0  0
    1.2135   -2.7256    0.0000 N   0  0  0  0  0  0  0  0  0  0  0  0
    0.7500   -1.2990    0.0000 C   0  0  0  0  0  0  0  0  0  0  0  0
    1.5000    0.0000    0.0000 C   0  0  0  0  0  0  0  0  0  0  0  0
    0.7500    1.2990    0.0000 C   0  0  0  0  0  0  0  0  0  0  0  0
    1.5000    2.5981    0.0000 C   0  0  0  0  0  0  0  0  0  0  0  0
    3.0000    2.5981    0.0000 C   0  0  0  0  0  0  0  0  0  0  0  0
    3.7500    3.8971    0.0000 C   0  0  0  0  0  0  0  0  0  0  0  0
    3.0000    5.1962    0.0000 C   0  0  0  0  0  0  0  0  0  0  0  0
    1.5000    5.1962    0.0000 C   0  0  0  0  0  0  0  0  0  0  0  0
    0.7500    3.8971    0.0000 C   0  0  0  0  0  0  0  0  0  0  0  0
   -0.7500    1.2990    0.0000 C   0  0  0  0  0  0  0  0  0  0  0  0
   -1.5000    0.0000    0.0000 C   0  0  0  0  0  0  0  0  0  0  0  0
   -0.7500   -1.2990    0.0000 C   0  0  0  0  0  0  0  0  0  0  0  0
   -9.9058  -12.3794    0.0000 N   0  0  0  0  0  0  0  0  0  0  0  0
  -11.3324  -12.8429    0.0000 O   0  0  0  0  0  0  0  0  0  0  0  0
  1  2  2  0
  2  3  1  0
  3  4  1  0
  4  5  1  0
  5  6  1  0
  6  7  1  0
  7  8  1  0
  8  9  1  0
  9 10  2  0
  9 11  1  0
 11 12  1  0
 12 13  2  0
 13 14  1  0
 14 15  1  0
 15 16  2  0
 16 17  1  0
 17 18  1  0
 18 19  2  0
 19 20  1  0
 20 21  2  0
 21 22  1  0
 22 23  2  0
 17 24  2  0
 24 25  1  0
 25 26  2  0
  2 27  1  0
 27 28  1  0
 26 12  1  0
 26 15  1  0
 23 18  1  0
M  END
>  <molecule_chembl_id>  (1163) 
CHEMBL4782327

>  <canonical_smiles>  (1163) 
O=C(CCCCCCC(=O)Nc1n[nH]c2cc(-c3ccccc3)ccc12)NO

>  <pchembl_value_mean>  (1163) 
7.88

>  <document_chembl_id>  (1163) 
CHEMBL4765277

$$$$

     RDKit          2D

 34 38  0  0  0  0  0  0  0  0999 V2000
    6.4776  -11.6524    0.0000 C   0  0  0  0  0  0  0  0  0  0  0  0
    7.2276  -10.3533    0.0000 C   0  0  0  0  0  0  0  0  0  0  0  0
    6.4776   -9.0543    0.0000 N   0  0  0  0  0  0  0  0  0  0  0  0
    7.2276   -7.7552    0.0000 C   0  0  0  0  0  0  0  0  0  0  0  0
    8.7276   -7.7552    0.0000 O   0  0  0  0  0  0  0  0  0  0  0  0
    6.4776   -6.4562    0.0000 C   0  0  0  0  0  0  0  0  0  0  0  0
    4.9858   -6.2994    0.0000 N   0  0  0  0  0  0  0  0  0  0  0  0
    4.6740   -4.8322    0.0000 C   0  0  0  0  0  0  0  0  0  0  0  0
    3.3037   -4.2221    0.0000 C   0  0  0  0  0  0  0  0  0  0  0  0
    2.0046   -4.9721    0.0000 N   0  0  0  0  0  0  0  0  0  0  0  0
    0.8899   -3.9684    0.0000 C   0  0  0  0  0  0  0  0  0  0  0  0
    1.5000   -2.5981    0.0000 C   0  0  0  0  0  0  0  0  0  0  0  0
    0.7500   -1.2990    0.0000 C   0  0  0  0  0  0  0  0  0  0  0  0
    1.5000    0.0000    0.0000 C   0  0  0  0  0  0  0  0  0  0  0  0
    0.7500    1.2990    0.0000 C   0  0  0  0  0  0  0  0  0  0  0  0
   -0.7500    1.2990    0.0000 C   0  0  0  0  0  0  0  0  0  0  0  0
   -1.5000    0.0000    0.0000 C   0  0  0  0  0  0  0  0  0  0  0  0
   -0.7500   -1.2990    0.0000 C   0  0  0  0  0  0  0  0  0  0  0  0
    2.9918   -2.7549    0.0000 S   0  0  0  0  0  0  0  0  0  0  0  0
    5.9730   -4.0822    0.0000 S   0  0  0  0  0  0  0  0  0  0  0  0
    7.0877   -5.0859    0.0000 C   0  0  0  0  0  0  0  0  0  0  0  0
    8.5549   -4.7740    0.0000 C   0  0  0  0  0  0  0  0  0  0  0  0
    9.6697   -3.7703    0.0000 C   0  0  0  0  0  0  0  0  0  0  0  0
    9.9815   -5.2375    0.0000 C   0  0  0  0  0  0  0  0  0  0  0  0
    8.7276  -10.3533    0.0000 C   0  0  0  0  0  0  0  0  0  0  0  0
    9.4776  -11.6524    0.0000 C   0  0  0  0  0  0  0  0  0  0  0  0
   10.9776  -11.6524    0.0000 C   0  0  0  0  0  0  0  0  0  0  0  0
   11.7276  -10.3533    0.0000 C   0  0  0  0  0  0  0  0  0  0  0  0
   13.2276  -10.3533    0.0000 C   0  0  0  0  0  0  0  0  0  0  0  0
   13.9776   -9.0543    0.0000 O   0  0  0  0  0  0  0  0  0  0  0  0
   13.9776  -11.6524    0.0000 N   0  0  0  0  0  0  0  0  0  0  0  0
   15.4776  -11.6524    0.0000 O   0  0  0  0  0  0  0  0  0  0  0  0
   10.9776   -9.0543    0.0000 C   0  0  0  0  0  0  0  0  0  0  0  0
    9.4776   -9.0543    0.0000 C   0  0  0  0  0  0  0  0  0  0  0  0
  1  2  1  0
  2  3  1  0
  3  4  1  0
  4  5  2  0
  4  6  1  0
  6  7  1  0
  7  8  2  0
  8  9  1  0
  9 10  2  0
 10 11  1  0
 11 12  2  0
 12 13  1  0
 13 14  2  0
 14 15  1  0
 15 16  2  0
 16 17  1  0
 17 18  2  0
 12 19  1  0
  8 20  1  0
 20 21  1  0
 21 22  1  0
 22 23  1  0
 23 24  1  0
  2 25  1  0
 25 26  2  0
 26 27  1  0
 27 28  2  0
 28 29  1  0
 29 30  2  0
 29 31  1  0
 31 32  1  0
 28 33  1  0
 33 34  2  0
 21  6  2  0
 24 22  1  0
 34 25  1  0
 19  9  1  0
 18 13  1  0
M  END
>  <molecule_chembl_id>  (1164) 
CHEMBL4460552

>  <canonical_smiles>  (1164) 
CC(NC(=O)c1nc(-c2ncc(-c3ccccc3)s2)sc1C1CC1)c1ccc(C(=O)NO)cc1

>  <pchembl_value_mean>  (1164) 
7.88

>  <document_chembl_id>  (1164) 
CHEMBL4354838

$$$$

     RDKit          2D

 28 30  0  0  0  0  0  0  0  0999 V2000
    7.5000   -2.5981    0.0000 C   0  0  0  0  0  0  0  0  0  0  0  0
    6.0000   -2.5981    0.0000 O   0  0  0  0  0  0  0  0  0  0  0  0
    5.2500   -1.2990    0.0000 C   0  0  0  0  0  0  0  0  0  0  0  0
    6.0000    0.0000    0.0000 O   0  0  0  0  0  0  0  0  0  0  0  0
    3.7500   -1.2990    0.0000 N   0  0  0  0  0  0  0  0  0  0  0  0
    3.0000    0.0000    0.0000 C   0  0  0  0  0  0  0  0  0  0  0  0
    1.5000    0.0000    0.0000 C   0  0  0  0  0  0  0  0  0  0  0  0
    0.7500   -1.2990    0.0000 C   0  0  0  0  0  0  0  0  0  0  0  0
   -0.7500   -1.2990    0.0000 C   0  0  0  0  0  0  0  0  0  0  0  0
   -1.5000    0.0000    0.0000 C   0  0  0  0  0  0  0  0  0  0  0  0
   -3.0000    0.0000    0.0000 C   0  0  0  0  0  0  0  0  0  0  0  0
   -3.7500   -1.2990    0.0000 O   0  0  0  0  0  0  0  0  0  0  0  0
   -3.7500    1.2990    0.0000 N   0  0  0  0  0  0  0  0  0  0  0  0
   -5.2500    1.2990    0.0000 C   0  0  0  0  0  0  0  0  0  0  0  0
   -6.0000    2.5981    0.0000 C   0  0  0  0  0  0  0  0  0  0  0  0
   -7.5000    2.5981    0.0000 C   0  0  0  0  0  0  0  0  0  0  0  0
   -8.2500    3.8971    0.0000 C   0  0  0  0  0  0  0  0  0  0  0  0
   -7.5000    5.1962    0.0000 C   0  0  0  0  0  0  0  0  0  0  0  0
   -8.2500    6.4952    0.0000 C   0  0  0  0  0  0  0  0  0  0  0  0
   -9.7500    6.4952    0.0000 C   0  0  0  0  0  0  0  0  0  0  0  0
  -10.5000    5.1962    0.0000 C   0  0  0  0  0  0  0  0  0  0  0  0
   -9.7500    3.8971    0.0000 C   0  0  0  0  0  0  0  0  0  0  0  0
   -8.2500    1.2990    0.0000 C   0  0  0  0  0  0  0  0  0  0  0  0
   -7.5000    0.0000    0.0000 C   0  0  0  0  0  0  0  0  0  0  0  0
   -6.0000    0.0000    0.0000 C   0  0  0  0  0  0  0  0  0  0  0  0
   -5.2500   -1.2990    0.0000 N   0  0  0  0  0  0  0  0  0  0  0  0
   -0.7500    1.2990    0.0000 C   0  0  0  0  0  0  0  0  0  0  0  0
    0.7500    1.2990    0.0000 C   0  0  0  0  0  0  0  0  0  0  0  0
  1  2  1  0
  2  3  1  0
  3  4  2  0
  3  5  1  0
  5  6  1  0
  6  7  1  0
  7  8  2  0
  8  9  1  0
  9 10  2  0
 10 11  1  0
 11 12  2  0
 11 13  1  0
 13 14  1  0
 14 15  2  0
 15 16  1  0
 16 17  1  0
 17 18  2  0
 18 19  1  0
 19 20  2  0
 20 21  1  0
 21 22  2  0
 16 23  2  0
 23 24  1  0
 24 25  2  0
 25 26  1  0
 10 27  1  0
 27 28  2  0
 28  7  1  0
 25 14  1  0
 22 17  1  0
M  END
>  <molecule_chembl_id>  (1165) 
CHEMBL398420

>  <canonical_smiles>  (1165) 
COC(=O)NCc1ccc(C(=O)Nc2cc(-c3ccccc3)ccc2N)cc1

>  <pchembl_value_mean>  (1165) 
7.89

>  <document_chembl_id>  (1165) 
CHEMBL1140803

$$$$

     RDKit          2D

 33 36  0  0  0  0  0  0  0  0999 V2000
    3.7500    1.2990    0.0000 O   0  0  0  0  0  0  0  0  0  0  0  0
    3.0000    0.0000    0.0000 C   0  0  0  0  0  0  0  0  0  0  0  0
    3.7500   -1.2990    0.0000 O   0  0  0  0  0  0  0  0  0  0  0  0
    1.5000    0.0000    0.0000 C   0  0  0  0  0  0  0  0  0  0  0  0
    0.7500   -1.2990    0.0000 C   0  0  0  0  0  0  0  0  0  0  0  0
   -0.7500   -1.2990    0.0000 C   0  0  0  0  0  0  0  0  0  0  0  0
   -1.5000    0.0000    0.0000 C   0  0  0  0  0  0  0  0  0  0  0  0
   -0.7500    1.2990    0.0000 C   0  0  0  0  0  0  0  0  0  0  0  0
   -1.5000    2.5981    0.0000 C   0  0  0  0  0  0  0  0  0  0  0  0
   -0.7500    3.8971    0.0000 C   0  0  0  0  0  0  0  0  0  0  0  0
   -1.5000    5.1962    0.0000 C   0  0  0  0  0  0  0  0  0  0  0  0
   -3.0000    5.1962    0.0000 C   0  0  0  0  0  0  0  0  0  0  0  0
   -3.7500    6.4952    0.0000 C   0  0  0  0  0  0  0  0  0  0  0  0
   -2.3797    7.1053    0.0000 C   0  0  0  0  0  0  0  0  0  0  0  0
   -1.1662    6.2236    0.0000 O   0  0  0  0  0  0  0  0  0  0  0  0
   -2.2229    8.5971    0.0000 N   0  0  0  0  0  0  0  0  0  0  0  0
   -0.8526    9.2072    0.0000 C   0  0  0  0  0  0  0  0  0  0  0  0
    0.3610    8.3255    0.0000 C   0  0  0  0  0  0  0  0  0  0  0  0
    1.7313    8.9356    0.0000 C   0  0  0  0  0  0  0  0  0  0  0  0
    1.8881   10.4274    0.0000 C   0  0  0  0  0  0  0  0  0  0  0  0
    3.2584   11.0375    0.0000 C   0  0  0  0  0  0  0  0  0  0  0  0
    3.4152   12.5293    0.0000 O   0  0  0  0  0  0  0  0  0  0  0  0
    4.4719   10.1558    0.0000 N   0  0  0  0  0  0  0  0  0  0  0  0
    5.8422   10.7659    0.0000 O   0  0  0  0  0  0  0  0  0  0  0  0
    0.6745   11.3091    0.0000 C   0  0  0  0  0  0  0  0  0  0  0  0
   -0.6958   10.6990    0.0000 C   0  0  0  0  0  0  0  0  0  0  0  0
   -4.2135    7.9218    0.0000 C   0  0  0  0  0  0  0  0  0  0  0  0
   -5.7135    7.9218    0.0000 C   0  0  0  0  0  0  0  0  0  0  0  0
   -6.1771    6.4952    0.0000 C   0  0  0  0  0  0  0  0  0  0  0  0
   -4.9635    5.6135    0.0000 C   0  0  0  0  0  0  0  0  0  0  0  0
   -3.7500    3.8971    0.0000 C   0  0  0  0  0  0  0  0  0  0  0  0
   -3.0000    2.5981    0.0000 C   0  0  0  0  0  0  0  0  0  0  0  0
    0.7500    1.2990    0.0000 C   0  0  0  0  0  0  0  0  0  0  0  0
  1  2  2  0
  2  3  1  0
  2  4  1  0
  4  5  2  0
  5  6  1  0
  6  7  2  0
  7  8  1  0
  8  9  1  0
  9 10  2  0
 10 11  1  0
 11 12  2  0
 12 13  1  0
 13 14  1  0
 14 15  2  0
 14 16  1  0
 16 17  1  0
 17 18  2  0
 18 19  1  0
 19 20  2  0
 20 21  1  0
 21 22  2  0
 21 23  1  0
 23 24  1  0
 20 25  1  0
 25 26  2  0
 13 27  1  0
 27 28  1  0
 28 29  1  0
 29 30  1  0
 12 31  1  0
 31 32  2  0
  8 33  2  0
 33  4  1  0
 32  9  1  0
 30 13  1  0
 26 17  1  0
M  END
>  <molecule_chembl_id>  (1166) 
CHEMBL4640415

>  <canonical_smiles>  (1166) 
O=C(O)c1cccc(-c2ccc(C3(C(=O)Nc4ccc(C(=O)NO)cc4)CCCC3)cc2)c1

>  <pchembl_value_mean>  (1166) 
7.89

>  <document_chembl_id>  (1166) 
CHEMBL4602725

$$$$

     RDKit          2D

 32 34  0  0  0  0  0  0  0  0999 V2000
    6.7500    1.2990    0.0000 C   0  0  0  0  0  0  0  0  0  0  0  0
    6.0000   -0.0000    0.0000 C   0  0  0  0  0  0  0  0  0  0  0  0
    5.2500   -1.2990    0.0000 C   0  0  0  0  0  0  0  0  0  0  0  0
    6.0000   -2.5981    0.0000 C   0  0  0  0  0  0  0  0  0  0  0  0
    5.2500   -3.8971    0.0000 C   0  0  0  0  0  0  0  0  0  0  0  0
    3.7500   -3.8971    0.0000 C   0  0  0  0  0  0  0  0  0  0  0  0
    3.0000   -2.5981    0.0000 C   0  0  0  0  0  0  0  0  0  0  0  0
    1.5000   -2.5981    0.0000 N   0  0  0  0  0  0  0  0  0  0  0  0
    0.7500   -1.2990    0.0000 C   0  0  0  0  0  0  0  0  0  0  0  0
    1.5000    0.0000    0.0000 N   0  0  0  0  0  0  0  0  0  0  0  0
    0.7500    1.2990    0.0000 C   0  0  0  0  0  0  0  0  0  0  0  0
   -0.7500    1.2990    0.0000 N   0  0  0  0  0  0  0  0  0  0  0  0
   -1.5000    0.0000    0.0000 C   0  0  0  0  0  0  0  0  0  0  0  0
   -3.0000    0.0000    0.0000 C   0  0  0  0  0  0  0  0  0  0  0  0
   -3.7500   -1.2990    0.0000 C   0  0  0  0  0  0  0  0  0  0  0  0
   -5.2500   -1.2990    0.0000 O   0  0  0  0  0  0  0  0  0  0  0  0
   -6.0000    0.0000    0.0000 C   0  0  0  0  0  0  0  0  0  0  0  0
   -3.0000   -2.5981    0.0000 C   0  0  0  0  0  0  0  0  0  0  0  0
   -3.7500   -3.8971    0.0000 O   0  0  0  0  0  0  0  0  0  0  0  0
   -3.0000   -5.1962    0.0000 C   0  0  0  0  0  0  0  0  0  0  0  0
   -3.7500   -6.4952    0.0000 C   0  0  0  0  0  0  0  0  0  0  0  0
   -3.0000   -7.7942    0.0000 C   0  0  0  0  0  0  0  0  0  0  0  0
   -3.7500   -9.0933    0.0000 C   0  0  0  0  0  0  0  0  0  0  0  0
   -3.0000  -10.3923    0.0000 C   0  0  0  0  0  0  0  0  0  0  0  0
   -3.7500  -11.6913    0.0000 C   0  0  0  0  0  0  0  0  0  0  0  0
   -3.0000  -12.9904    0.0000 C   0  0  0  0  0  0  0  0  0  0  0  0
   -1.5000  -12.9904    0.0000 O   0  0  0  0  0  0  0  0  0  0  0  0
   -3.7500  -14.2894    0.0000 N   0  0  0  0  0  0  0  0  0  0  0  0
   -3.0000  -15.5885    0.0000 O   0  0  0  0  0  0  0  0  0  0  0  0
   -1.5000   -2.5981    0.0000 C   0  0  0  0  0  0  0  0  0  0  0  0
   -0.7500   -1.2990    0.0000 C   0  0  0  0  0  0  0  0  0  0  0  0
    3.7500   -1.2990    0.0000 C   0  0  0  0  0  0  0  0  0  0  0  0
  1  2  3  0
  2  3  1  0
  3  4  2  0
  4  5  1  0
  5  6  2  0
  6  7  1  0
  7  8  1  0
  8  9  1  0
  9 10  2  0
 10 11  1  0
 11 12  2  0
 12 13  1  0
 13 14  2  0
 14 15  1  0
 15 16  1  0
 16 17  1  0
 15 18  2  0
 18 19  1  0
 19 20  1  0
 20 21  1  0
 21 22  1  0
 22 23  1  0
 23 24  1  0
 24 25  1  0
 25 26  1  0
 26 27  2  0
 26 28  1  0
 28 29  1  0
 18 30  1  0
 30 31  2  0
  7 32  2  0
 32  3  1  0
 31  9  1  0
 31 13  1  0
M  END
>  <molecule_chembl_id>  (1167) 
CHEMBL598797

>  <canonical_smiles>  (1167) 
C#Cc1cccc(Nc2ncnc3cc(OC)c(OCCCCCCC(=O)NO)cc23)c1

>  <pchembl_value_mean>  (1167) 
7.9

>  <document_chembl_id>  (1167) 
CHEMBL1157563

$$$$

     RDKit          2D

 20 20  0  0  0  0  0  0  0  0999 V2000
   12.7500   -3.8971    0.0000 O   0  0  0  0  0  0  0  0  0  0  0  0
   12.0000   -5.1962    0.0000 C   0  0  0  0  0  0  0  0  0  0  0  0
   10.5000   -5.1962    0.0000 C   0  0  0  0  0  0  0  0  0  0  0  0
    9.7500   -3.8971    0.0000 C   0  0  0  0  0  0  0  0  0  0  0  0
    8.2500   -3.8971    0.0000 C   0  0  0  0  0  0  0  0  0  0  0  0
    7.5000   -2.5981    0.0000 C   0  0  0  0  0  0  0  0  0  0  0  0
    6.0000   -2.5981    0.0000 C   0  0  0  0  0  0  0  0  0  0  0  0
    5.2500   -1.2990    0.0000 C   0  0  0  0  0  0  0  0  0  0  0  0
    3.7500   -1.2990    0.0000 C   0  0  0  0  0  0  0  0  0  0  0  0
    3.0000   -2.5981    0.0000 O   0  0  0  0  0  0  0  0  0  0  0  0
    3.0000    0.0000    0.0000 N   0  0  0  0  0  0  0  0  0  0  0  0
    1.5000    0.0000    0.0000 C   0  0  0  0  0  0  0  0  0  0  0  0
    0.7500   -1.2990    0.0000 C   0  0  0  0  0  0  0  0  0  0  0  0
   -0.7500   -1.2990    0.0000 C   0  0  0  0  0  0  0  0  0  0  0  0
   -1.5000    0.0000    0.0000 C   0  0  0  0  0  0  0  0  0  0  0  0
   -3.0000    0.0000    0.0000 F   0  0  0  0  0  0  0  0  0  0  0  0
   -0.7500    1.2990    0.0000 C   0  0  0  0  0  0  0  0  0  0  0  0
    0.7500    1.2990    0.0000 C   0  0  0  0  0  0  0  0  0  0  0  0
   12.7500   -6.4952    0.0000 N   0  0  0  0  0  0  0  0  0  0  0  0
   14.2500   -6.4952    0.0000 O   0  0  0  0  0  0  0  0  0  0  0  0
  1  2  2  0
  2  3  1  0
  3  4  1  0
  4  5  1  0
  5  6  1  0
  6  7  1  0
  7  8  1  0
  8  9  1  0
  9 10  2  0
  9 11  1  0
 11 12  1  0
 12 13  2  0
 13 14  1  0
 14 15  2  0
 15 16  1  0
 15 17  1  0
 17 18  2  0
  2 19  1  0
 19 20  1  0
 18 12  1  0
M  END
>  <molecule_chembl_id>  (1168) 
CHEMBL1923808

>  <canonical_smiles>  (1168) 
O=C(CCCCCCC(=O)Nc1ccc(F)cc1)NO

>  <pchembl_value_mean>  (1168) 
7.9

>  <document_chembl_id>  (1168) 
CHEMBL1921669

$$$$

     RDKit          2D

 22 24  0  0  0  0  0  0  0  0999 V2000
    3.7500    1.2990    0.0000 O   0  0  0  0  0  0  0  0  0  0  0  0
    3.0000    0.0000    0.0000 C   0  0  0  0  0  0  0  0  0  0  0  0
    3.7500   -1.2990    0.0000 N   0  0  0  0  0  0  0  0  0  0  0  0
    5.2500   -1.2990    0.0000 O   0  0  0  0  0  0  0  0  0  0  0  0
    1.5000    0.0000    0.0000 C   0  0  0  0  0  0  0  0  0  0  0  0
    0.7500   -1.2990    0.0000 C   0  0  0  0  0  0  0  0  0  0  0  0
   -0.7500   -1.2990    0.0000 N   0  0  0  0  0  0  0  0  0  0  0  0
   -1.5000    0.0000    0.0000 C   0  0  0  0  0  0  0  0  0  0  0  0
   -3.0000    0.0000    0.0000 N   0  0  0  0  0  0  0  0  0  0  0  0
   -3.7500    1.2990    0.0000 C   0  0  0  0  0  0  0  0  0  0  0  0
   -5.1595    0.7860    0.0000 C   0  0  0  0  0  0  0  0  0  0  0  0
   -5.4200   -0.6912    0.0000 C   0  0  0  0  0  0  0  0  0  0  0  0
   -6.8296   -1.2042    0.0000 C   0  0  0  0  0  0  0  0  0  0  0  0
   -7.9786   -0.2401    0.0000 C   0  0  0  0  0  0  0  0  0  0  0  0
   -9.3882   -0.7531    0.0000 F   0  0  0  0  0  0  0  0  0  0  0  0
   -7.7181    1.2372    0.0000 C   0  0  0  0  0  0  0  0  0  0  0  0
   -6.3086    1.7502    0.0000 C   0  0  0  0  0  0  0  0  0  0  0  0
   -6.0481    3.2274    0.0000 F   0  0  0  0  0  0  0  0  0  0  0  0
   -4.0105    2.7762    0.0000 C   0  0  0  0  0  0  0  0  0  0  0  0
   -2.6009    2.2632    0.0000 C   0  0  0  0  0  0  0  0  0  0  0  0
   -0.7500    1.2990    0.0000 N   0  0  0  0  0  0  0  0  0  0  0  0
    0.7500    1.2990    0.0000 C   0  0  0  0  0  0  0  0  0  0  0  0
  1  2  2  0
  2  3  1  0
  3  4  1  0
  2  5  1  0
  5  6  2  0
  6  7  1  0
  7  8  2  0
  8  9  1  0
  9 10  1  0
 10 11  1  0
 11 12  2  0
 12 13  1  0
 13 14  2  0
 14 15  1  0
 14 16  1  0
 16 17  2  0
 17 18  1  0
 10 19  1  0
 19 20  1  0
  8 21  1  0
 21 22  2  0
 22  5  1  0
 20 10  1  0
 17 11  1  0
M  END
>  <molecule_chembl_id>  (1169) 
CHEMBL3655992

>  <canonical_smiles>  (1169) 
O=C(NO)c1cnc(NC2(c3ccc(F)cc3F)CC2)nc1

>  <pchembl_value_mean>  (1169) 
7.92

>  <document_chembl_id>  (1169) 
CHEMBL3639071

$$$$

     RDKit          2D

 31 35  0  0  0  0  0  0  0  0999 V2000
    3.7500   -3.8971    0.0000 N   0  0  0  0  0  0  0  0  0  0  0  0
    3.0000   -5.1962    0.0000 C   0  0  0  0  0  0  0  0  0  0  0  0
    3.7500   -6.4952    0.0000 C   0  0  0  0  0  0  0  0  0  0  0  0
    3.0000   -7.7942    0.0000 C   0  0  0  0  0  0  0  0  0  0  0  0
    1.5000   -7.7942    0.0000 C   0  0  0  0  0  0  0  0  0  0  0  0
    0.7500   -9.0933    0.0000 C   0  0  0  0  0  0  0  0  0  0  0  0
    1.3601  -10.4636    0.0000 C   0  0  0  0  0  0  0  0  0  0  0  0
    0.2454  -11.4673    0.0000 C   0  0  0  0  0  0  0  0  0  0  0  0
   -1.0537  -10.7173    0.0000 C   0  0  0  0  0  0  0  0  0  0  0  0
   -0.7418   -9.2501    0.0000 S   0  0  0  0  0  0  0  0  0  0  0  0
    0.7500   -6.4952    0.0000 C   0  0  0  0  0  0  0  0  0  0  0  0
    1.5000   -5.1962    0.0000 C   0  0  0  0  0  0  0  0  0  0  0  0
    0.7500   -3.8971    0.0000 N   0  0  0  0  0  0  0  0  0  0  0  0
    1.5000   -2.5981    0.0000 C   0  0  0  0  0  0  0  0  0  0  0  0
    3.0000   -2.5981    0.0000 O   0  0  0  0  0  0  0  0  0  0  0  0
    0.7500   -1.2990    0.0000 C   0  0  0  0  0  0  0  0  0  0  0  0
    1.5000    0.0000    0.0000 C   0  0  0  0  0  0  0  0  0  0  0  0
    0.7500    1.2990    0.0000 C   0  0  0  0  0  0  0  0  0  0  0  0
   -0.7500    1.2990    0.0000 C   0  0  0  0  0  0  0  0  0  0  0  0
   -1.5000    2.5981    0.0000 N   0  0  0  0  0  0  0  0  0  0  0  0
   -3.0000    2.5981    0.0000 C   0  0  0  0  0  0  0  0  0  0  0  0
   -3.7500    3.8971    0.0000 N   0  0  0  0  0  0  0  0  0  0  0  0
   -3.0000    5.1962    0.0000 C   0  0  0  0  0  0  0  0  0  0  0  0
   -3.7500    6.4952    0.0000 C   0  0  0  0  0  0  0  0  0  0  0  0
   -5.2500    6.4952    0.0000 N   0  0  0  0  0  0  0  0  0  0  0  0
   -6.0000    5.1962    0.0000 C   0  0  0  0  0  0  0  0  0  0  0  0
   -5.2500    3.8971    0.0000 C   0  0  0  0  0  0  0  0  0  0  0  0
   -3.7500    1.2990    0.0000 C   0  0  0  0  0  0  0  0  0  0  0  0
   -3.0000    0.0000    0.0000 N   0  0  0  0  0  0  0  0  0  0  0  0
   -1.5000    0.0000    0.0000 C   0  0  0  0  0  0  0  0  0  0  0  0
   -0.7500   -1.2990    0.0000 C   0  0  0  0  0  0  0  0  0  0  0  0
  1  2  1  0
  2  3  2  0
  3  4  1  0
  4  5  2  0
  5  6  1  0
  6  7  2  0
  7  8  1  0
  8  9  2  0
  9 10  1  0
  5 11  1  0
 11 12  2  0
 12 13  1  0
 13 14  1  0
 14 15  2  0
 14 16  1  0
 16 17  2  0
 17 18  1  0
 18 19  2  0
 19 20  1  0
 20 21  2  0
 21 22  1  0
 22 23  1  0
 23 24  1  0
 24 25  1  0
 25 26  1  0
 26 27  1  0
 21 28  1  0
 28 29  2  0
 29 30  1  0
 30 31  2  0
 12  2  1  0
 31 16  1  0
 10  6  1  0
 30 19  1  0
 27 22  1  0
M  END
>  <molecule_chembl_id>  (1170) 
CHEMBL3899844

>  <canonical_smiles>  (1170) 
Nc1ccc(-c2cccs2)cc1NC(=O)c1ccc2nc(N3CCNCC3)cnc2c1

>  <pchembl_value_mean>  (1170) 
7.92

>  <document_chembl_id>  (1170) 
CHEMBL3886267

$$$$

     RDKit          2D

 29 30  0  0  0  0  0  0  0  0999 V2000
    8.7718   -8.1269    0.0000 O   0  0  0  0  0  0  0  0  0  0  0  0
    7.5583   -7.2452    0.0000 C   0  0  0  0  0  0  0  0  0  0  0  0
    7.5583   -5.7452    0.0000 C   0  0  0  0  0  0  0  0  0  0  0  0
    6.1317   -5.2817    0.0000 C   0  0  0  0  0  0  0  0  0  0  0  0
    5.2500   -6.4952    0.0000 C   0  0  0  0  0  0  0  0  0  0  0  0
    3.7500   -6.4952    0.0000 C   0  0  0  0  0  0  0  0  0  0  0  0
    3.0000   -7.7942    0.0000 O   0  0  0  0  0  0  0  0  0  0  0  0
    3.0000   -5.1962    0.0000 N   0  0  0  0  0  0  0  0  0  0  0  0
    1.5000   -5.1962    0.0000 C   0  0  0  0  0  0  0  0  0  0  0  0
    0.7500   -6.4952    0.0000 C   0  0  0  0  0  0  0  0  0  0  0  0
    1.5000   -7.7942    0.0000 C   0  0  0  0  0  0  0  0  0  0  0  0
    0.7500   -9.0933    0.0000 C   0  0  0  0  0  0  0  0  0  0  0  0
    1.5000  -10.3923    0.0000 C   0  0  0  0  0  0  0  0  0  0  0  0
    0.7500  -11.6913    0.0000 C   0  0  0  0  0  0  0  0  0  0  0  0
    1.5000  -12.9904    0.0000 S   0  0  0  0  0  0  0  0  0  0  0  0
    0.7500   -3.8971    0.0000 C   0  0  0  0  0  0  0  0  0  0  0  0
   -0.7500   -3.8971    0.0000 O   0  0  0  0  0  0  0  0  0  0  0  0
    1.5000   -2.5981    0.0000 N   0  0  0  0  0  0  0  0  0  0  0  0
    0.7500   -1.2990    0.0000 C   0  0  0  0  0  0  0  0  0  0  0  0
    1.5000    0.0000    0.0000 C   0  0  0  0  0  0  0  0  0  0  0  0
    0.7500    1.2990    0.0000 C   0  0  0  0  0  0  0  0  0  0  0  0
   -0.7500    1.2990    0.0000 C   0  0  0  0  0  0  0  0  0  0  0  0
   -1.5000    0.0000    0.0000 C   0  0  0  0  0  0  0  0  0  0  0  0
   -3.0000    0.0000    0.0000 C   0  0  0  0  0  0  0  0  0  0  0  0
   -4.5000    0.0000    0.0000 F   0  0  0  0  0  0  0  0  0  0  0  0
   -3.0000    1.5000    0.0000 F   0  0  0  0  0  0  0  0  0  0  0  0
   -3.0000   -1.5000    0.0000 F   0  0  0  0  0  0  0  0  0  0  0  0
   -0.7500   -1.2990    0.0000 C   0  0  0  0  0  0  0  0  0  0  0  0
    6.1317   -7.7087    0.0000 N   0  0  0  0  0  0  0  0  0  0  0  0
  1  2  2  0
  2  3  1  0
  3  4  1  0
  4  5  1  0
  5  6  1  0
  6  7  2  0
  6  8  1  0
  8  9  1  0
  9 10  1  0
 10 11  1  0
 11 12  1  0
 12 13  1  0
 13 14  1  0
 14 15  1  0
  9 16  1  0
 16 17  2  0
 16 18  1  0
 18 19  1  0
 19 20  2  0
 20 21  1  0
 21 22  2  0
 22 23  1  0
 23 24  1  0
 24 25  1  0
 24 26  1  0
 24 27  1  0
 23 28  2  0
  5 29  1  0
 29  2  1  0
 28 19  1  0
M  END
>  <molecule_chembl_id>  (1171) 
CHEMBL3353927

>  <canonical_smiles>  (1171) 
O=C1CCC(C(=O)NC(CCCCCS)C(=O)Nc2cccc(C(F)(F)F)c2)N1

>  <pchembl_value_mean>  (1171) 
7.92

>  <document_chembl_id>  (1171) 
CHEMBL3352629

$$$$

     RDKit          2D

 38 42  0  0  0  0  0  0  0  0999 V2000
   10.7824  -15.8378    0.0000 C   0  0  0  0  0  0  0  0  0  0  0  0
    9.4121  -15.2277    0.0000 C   0  0  0  0  0  0  0  0  0  0  0  0
    9.2553  -13.7359    0.0000 C   0  0  0  0  0  0  0  0  0  0  0  0
   10.4688  -12.8543    0.0000 O   0  0  0  0  0  0  0  0  0  0  0  0
    7.8850  -13.1258    0.0000 C   0  0  0  0  0  0  0  0  0  0  0  0
    7.7282  -11.6340    0.0000 C   0  0  0  0  0  0  0  0  0  0  0  0
    6.3579  -11.0239    0.0000 C   0  0  0  0  0  0  0  0  0  0  0  0
    6.2011   -9.5322    0.0000 C   0  0  0  0  0  0  0  0  0  0  0  0
    4.8308   -8.9221    0.0000 C   0  0  0  0  0  0  0  0  0  0  0  0
    4.6740   -7.4303    0.0000 C   0  0  0  0  0  0  0  0  0  0  0  0
    5.8875   -6.5486    0.0000 N   0  0  0  0  0  0  0  0  0  0  0  0
    7.2578   -7.1587    0.0000 C   0  0  0  0  0  0  0  0  0  0  0  0
    7.4146   -8.6505    0.0000 O   0  0  0  0  0  0  0  0  0  0  0  0
    8.4713   -6.2770    0.0000 C   0  0  0  0  0  0  0  0  0  0  0  0
    9.0814   -4.9067    0.0000 C   0  0  0  0  0  0  0  0  0  0  0  0
    9.9631   -6.1202    0.0000 C   0  0  0  0  0  0  0  0  0  0  0  0
   11.2622   -5.3702    0.0000 C   0  0  0  0  0  0  0  0  0  0  0  0
   12.3769   -6.3739    0.0000 C   0  0  0  0  0  0  0  0  0  0  0  0
   11.7668   -7.7442    0.0000 N   0  0  0  0  0  0  0  0  0  0  0  0
   12.5168   -9.0433    0.0000 C   0  0  0  0  0  0  0  0  0  0  0  0
   10.2750   -7.5874    0.0000 C   0  0  0  0  0  0  0  0  0  0  0  0
    3.3037   -6.8202    0.0000 C   0  0  0  0  0  0  0  0  0  0  0  0
    2.0046   -7.5702    0.0000 N   0  0  0  0  0  0  0  0  0  0  0  0
    0.8899   -6.5665    0.0000 C   0  0  0  0  0  0  0  0  0  0  0  0
    1.5000   -5.1962    0.0000 C   0  0  0  0  0  0  0  0  0  0  0  0
    0.7500   -3.8971    0.0000 C   0  0  0  0  0  0  0  0  0  0  0  0
    1.5000   -2.5981    0.0000 C   0  0  0  0  0  0  0  0  0  0  0  0
    0.7500   -1.2990    0.0000 C   0  0  0  0  0  0  0  0  0  0  0  0
    1.5000    0.0000    0.0000 C   0  0  0  0  0  0  0  0  0  0  0  0
    0.7500    1.2990    0.0000 C   0  0  0  0  0  0  0  0  0  0  0  0
   -0.7500    1.2990    0.0000 C   0  0  0  0  0  0  0  0  0  0  0  0
   -1.5000    0.0000    0.0000 C   0  0  0  0  0  0  0  0  0  0  0  0
   -0.7500   -1.2990    0.0000 C   0  0  0  0  0  0  0  0  0  0  0  0
   -1.5000   -2.5981    0.0000 N   0  0  0  0  0  0  0  0  0  0  0  0
   -0.7500   -3.8971    0.0000 C   0  0  0  0  0  0  0  0  0  0  0  0
   -1.5000   -5.1962    0.0000 O   0  0  0  0  0  0  0  0  0  0  0  0
   -3.0000   -5.1962    0.0000 C   0  0  0  0  0  0  0  0  0  0  0  0
    2.9918   -5.3529    0.0000 N   0  0  0  0  0  0  0  0  0  0  0  0
  1  2  1  0
  2  3  1  0
  3  4  2  0
  3  5  1  0
  5  6  1  0
  6  7  1  0
  7  8  1  0
  8  9  1  0
  9 10  1  0
 10 11  1  0
 11 12  1  0
 12 13  2  0
 12 14  1  0
 14 15  1  0
 15 16  1  0
 16 17  1  0
 17 18  1  0
 18 19  1  0
 19 20  1  0
 19 21  1  0
 10 22  1  0
 22 23  2  0
 23 24  1  0
 24 25  2  0
 25 26  1  0
 26 27  2  0
 27 28  1  0
 28 29  2  0
 29 30  1  0
 30 31  2  0
 31 32  1  0
 32 33  2  0
 33 34  1  0
 34 35  2  0
 35 36  1  0
 36 37  1  0
 25 38  1  0
 16 14  1  0
 38 22  1  0
 21 16  1  0
 35 26  1  0
 33 28  1  0
M  END
>  <molecule_chembl_id>  (1172) 
CHEMBL4644118

>  <canonical_smiles>  (1172) 
CCC(=O)CCCCCC(NC(=O)C1CC12CCN(C)C2)c1ncc(-c2cc3ccccc3nc2OC)[nH]1

>  <pchembl_value_mean>  (1172) 
7.925

>  <document_chembl_id>  (1172) 
CHEMBL4622849

$$$$

     RDKit          2D

 37 41  0  0  0  0  0  0  0  0999 V2000
    3.0000   -7.7942    0.0000 C   0  0  0  0  0  0  0  0  0  0  0  0
    3.7500   -6.4952    0.0000 O   0  0  0  0  0  0  0  0  0  0  0  0
    3.0000   -5.1962    0.0000 C   0  0  0  0  0  0  0  0  0  0  0  0
    1.5000   -5.1962    0.0000 C   0  0  0  0  0  0  0  0  0  0  0  0
    0.7500   -3.8971    0.0000 C   0  0  0  0  0  0  0  0  0  0  0  0
    1.5000   -2.5981    0.0000 C   0  0  0  0  0  0  0  0  0  0  0  0
    0.7500   -1.2990    0.0000 C   0  0  0  0  0  0  0  0  0  0  0  0
    1.5000    0.0000    0.0000 N   0  0  0  0  0  0  0  0  0  0  0  0
    0.7500    1.2990    0.0000 C   0  0  0  0  0  0  0  0  0  0  0  0
    1.5000    2.5981    0.0000 N   0  0  0  0  0  0  0  0  0  0  0  0
    3.0000    2.5981    0.0000 C   0  0  0  0  0  0  0  0  0  0  0  0
    3.7500    3.8971    0.0000 C   0  0  0  0  0  0  0  0  0  0  0  0
    3.0000    5.1962    0.0000 O   0  0  0  0  0  0  0  0  0  0  0  0
    1.5000    5.1962    0.0000 C   0  0  0  0  0  0  0  0  0  0  0  0
    0.7500    3.8971    0.0000 C   0  0  0  0  0  0  0  0  0  0  0  0
   -0.7500    1.2990    0.0000 C   0  0  0  0  0  0  0  0  0  0  0  0
   -1.7537    2.4138    0.0000 N   0  0  0  0  0  0  0  0  0  0  0  0
   -3.1240    1.8037    0.0000 C   0  0  0  0  0  0  0  0  0  0  0  0
   -4.4231    2.5537    0.0000 C   0  0  0  0  0  0  0  0  0  0  0  0
   -4.4231    4.0537    0.0000 N   0  0  0  0  0  0  0  0  0  0  0  0
   -5.7221    4.8037    0.0000 C   0  0  0  0  0  0  0  0  0  0  0  0
   -3.1240    4.8037    0.0000 C   0  0  0  0  0  0  0  0  0  0  0  0
   -1.8250    4.0537    0.0000 N   0  0  0  0  0  0  0  0  0  0  0  0
   -0.5259    4.8037    0.0000 C   0  0  0  0  0  0  0  0  0  0  0  0
   -0.5259    6.3037    0.0000 C   0  0  0  0  0  0  0  0  0  0  0  0
    0.7731    7.0537    0.0000 C   0  0  0  0  0  0  0  0  0  0  0  0
    2.0721    6.3037    0.0000 O   0  0  0  0  0  0  0  0  0  0  0  0
    0.7731    8.5537    0.0000 N   0  0  0  0  0  0  0  0  0  0  0  0
    2.0721    9.3037    0.0000 O   0  0  0  0  0  0  0  0  0  0  0  0
   -1.8250    7.0537    0.0000 C   0  0  0  0  0  0  0  0  0  0  0  0
   -3.1240    6.3037    0.0000 N   0  0  0  0  0  0  0  0  0  0  0  0
   -2.9672    0.3119    0.0000 N   0  0  0  0  0  0  0  0  0  0  0  0
   -4.0819   -0.6918    0.0000 C   0  0  0  0  0  0  0  0  0  0  0  0
   -1.5000    0.0000    0.0000 C   0  0  0  0  0  0  0  0  0  0  0  0
   -0.7500   -1.2990    0.0000 N   0  0  0  0  0  0  0  0  0  0  0  0
    3.0000   -2.5981    0.0000 C   0  0  0  0  0  0  0  0  0  0  0  0
    3.7500   -3.8971    0.0000 N   0  0  0  0  0  0  0  0  0  0  0  0
  1  2  1  0
  2  3  1  0
  3  4  2  0
  4  5  1  0
  5  6  2  0
  6  7  1  0
  7  8  2  0
  8  9  1  0
  9 10  1  0
 10 11  1  0
 11 12  1  0
 12 13  1  0
 13 14  1  0
 14 15  1  0
  9 16  2  0
 16 17  1  0
 17 18  2  0
 18 19  1  0
 19 20  1  0
 20 21  1  0
 20 22  1  0
 22 23  2  0
 23 24  1  0
 24 25  2  0
 25 26  1  0
 26 27  2  0
 26 28  1  0
 28 29  1  0
 25 30  1  0
 30 31  2  0
 18 32  1  0
 32 33  1  0
 32 34  1  0
 34 35  2  0
  6 36  1  0
 36 37  2  0
 37  3  1  0
 35  7  1  0
 15 10  1  0
 34 16  1  0
 31 22  1  0
M  END
>  <molecule_chembl_id>  (1173) 
CHEMBL3827281

>  <canonical_smiles>  (1173) 
COc1ccc(-c2nc(N3CCOCC3)c3nc(CN(C)c4ncc(C(=O)NO)cn4)n(C)c3n2)cn1

>  <pchembl_value_mean>  (1173) 
7.94

>  <document_chembl_id>  (1173) 
CHEMBL3826921

$$$$

     RDKit          2D

 25 27  0  0  0  0  0  0  0  0999 V2000
    0.0000  -12.9904    0.0000 O   0  0  0  0  0  0  0  0  0  0  0  0
   -1.5000  -12.9904    0.0000 C   0  0  0  0  0  0  0  0  0  0  0  0
   -2.2500  -11.6913    0.0000 C   0  0  0  0  0  0  0  0  0  0  0  0
   -1.5000  -10.3923    0.0000 C   0  0  0  0  0  0  0  0  0  0  0  0
   -2.2500   -9.0933    0.0000 C   0  0  0  0  0  0  0  0  0  0  0  0
   -3.7500   -9.0933    0.0000 C   0  0  0  0  0  0  0  0  0  0  0  0
   -4.5000   -7.7942    0.0000 C   0  0  0  0  0  0  0  0  0  0  0  0
   -3.7500   -6.4952    0.0000 C   0  0  0  0  0  0  0  0  0  0  0  0
   -2.2500   -6.4952    0.0000 C   0  0  0  0  0  0  0  0  0  0  0  0
   -1.5000   -5.1962    0.0000 S   0  0  0  0  0  0  0  0  0  0  0  0
   -0.2010   -5.9462    0.0000 O   0  0  0  0  0  0  0  0  0  0  0  0
   -2.7990   -4.4462    0.0000 O   0  0  0  0  0  0  0  0  0  0  0  0
   -0.7500   -3.8971    0.0000 C   0  0  0  0  0  0  0  0  0  0  0  0
    0.7500   -3.8971    0.0000 C   0  0  0  0  0  0  0  0  0  0  0  0
    1.5000   -2.5981    0.0000 C   0  0  0  0  0  0  0  0  0  0  0  0
    0.7500   -1.2990    0.0000 C   0  0  0  0  0  0  0  0  0  0  0  0
    1.5000    0.0000    0.0000 C   0  0  0  0  0  0  0  0  0  0  0  0
    0.7500    1.2990    0.0000 C   0  0  0  0  0  0  0  0  0  0  0  0
   -0.7500    1.2990    0.0000 C   0  0  0  0  0  0  0  0  0  0  0  0
   -1.5000    0.0000    0.0000 C   0  0  0  0  0  0  0  0  0  0  0  0
   -0.7500   -1.2990    0.0000 C   0  0  0  0  0  0  0  0  0  0  0  0
   -1.5000   -2.5981    0.0000 N   0  0  0  0  0  0  0  0  0  0  0  0
   -1.5000   -7.7942    0.0000 C   0  0  0  0  0  0  0  0  0  0  0  0
   -2.2500  -14.2894    0.0000 N   0  0  0  0  0  0  0  0  0  0  0  0
   -1.5000  -15.5885    0.0000 O   0  0  0  0  0  0  0  0  0  0  0  0
  1  2  2  0
  2  3  1  0
  3  4  2  3
  4  5  1  0
  5  6  2  0
  6  7  1  0
  7  8  2  0
  8  9  1  0
  9 10  1  0
 10 11  2  0
 10 12  2  0
 10 13  1  0
 13 14  2  0
 14 15  1  0
 15 16  2  0
 16 17  1  0
 17 18  2  0
 18 19  1  0
 19 20  2  0
 20 21  1  0
 21 22  2  0
  9 23  2  0
  2 24  1  0
 24 25  1  0
 23  5  1  0
 22 13  1  0
 21 16  1  0
M  END
>  <molecule_chembl_id>  (1174) 
CHEMBL3973951

>  <canonical_smiles>  (1174) 
O=C(C=Cc1cccc(S(=O)(=O)c2ccc3ccccc3n2)c1)NO

>  <pchembl_value_mean>  (1174) 
7.94

>  <document_chembl_id>  (1174) 
CHEMBL3865790

$$$$

     RDKit          2D

 34 38  0  0  0  0  0  0  0  0999 V2000
   -8.6583   -6.5105    0.0000 C   0  0  0  0  0  0  0  0  0  0  0  0
   -7.2317   -6.0469    0.0000 N   0  0  0  0  0  0  0  0  0  0  0  0
   -6.9199   -4.5797    0.0000 C   0  0  0  0  0  0  0  0  0  0  0  0
   -5.4933   -4.1162    0.0000 C   0  0  0  0  0  0  0  0  0  0  0  0
   -4.3786   -5.1199    0.0000 N   0  0  0  0  0  0  0  0  0  0  0  0
   -2.9520   -4.6564    0.0000 C   0  0  0  0  0  0  0  0  0  0  0  0
   -2.6401   -3.1891    0.0000 C   0  0  0  0  0  0  0  0  0  0  0  0
   -1.2135   -2.7256    0.0000 N   0  0  0  0  0  0  0  0  0  0  0  0
   -0.0000   -3.6073    0.0000 N   0  0  0  0  0  0  0  0  0  0  0  0
    1.2135   -2.7256    0.0000 C   0  0  0  0  0  0  0  0  0  0  0  0
    0.7500   -1.2990    0.0000 C   0  0  0  0  0  0  0  0  0  0  0  0
    1.5000    0.0000    0.0000 C   0  0  0  0  0  0  0  0  0  0  0  0
    0.7500    1.2990    0.0000 C   0  0  0  0  0  0  0  0  0  0  0  0
    1.5000    2.5981    0.0000 C   0  0  0  0  0  0  0  0  0  0  0  0
    0.7500    3.8971    0.0000 O   0  0  0  0  0  0  0  0  0  0  0  0
    3.0000    2.5981    0.0000 N   0  0  0  0  0  0  0  0  0  0  0  0
    3.7500    3.8971    0.0000 C   0  0  0  0  0  0  0  0  0  0  0  0
    5.2500    3.8971    0.0000 C   0  0  0  0  0  0  0  0  0  0  0  0
    6.0000    5.1962    0.0000 C   0  0  0  0  0  0  0  0  0  0  0  0
    7.5000    5.1962    0.0000 C   0  0  0  0  0  0  0  0  0  0  0  0
    8.2500    3.8971    0.0000 C   0  0  0  0  0  0  0  0  0  0  0  0
    9.7500    3.8971    0.0000 C   0  0  0  0  0  0  0  0  0  0  0  0
   10.5000    5.1962    0.0000 C   0  0  0  0  0  0  0  0  0  0  0  0
    9.7500    6.4952    0.0000 C   0  0  0  0  0  0  0  0  0  0  0  0
    8.2500    6.4952    0.0000 C   0  0  0  0  0  0  0  0  0  0  0  0
    5.2500    6.4952    0.0000 C   0  0  0  0  0  0  0  0  0  0  0  0
    3.7500    6.4952    0.0000 C   0  0  0  0  0  0  0  0  0  0  0  0
    3.0000    5.1962    0.0000 C   0  0  0  0  0  0  0  0  0  0  0  0
    1.5000    5.1962    0.0000 N   0  0  0  0  0  0  0  0  0  0  0  0
   -0.7500    1.2990    0.0000 C   0  0  0  0  0  0  0  0  0  0  0  0
   -1.5000    0.0000    0.0000 C   0  0  0  0  0  0  0  0  0  0  0  0
   -0.7500   -1.2990    0.0000 C   0  0  0  0  0  0  0  0  0  0  0  0
   -4.6904   -6.5871    0.0000 C   0  0  0  0  0  0  0  0  0  0  0  0
   -6.1170   -7.0506    0.0000 C   0  0  0  0  0  0  0  0  0  0  0  0
  1  2  1  0
  2  3  1  0
  3  4  1  0
  4  5  1  0
  5  6  1  0
  6  7  1  0
  7  8  1  0
  8  9  1  0
  9 10  2  0
 10 11  1  0
 11 12  2  0
 12 13  1  0
 13 14  1  0
 14 15  2  0
 14 16  1  0
 16 17  1  0
 17 18  2  0
 18 19  1  0
 19 20  1  0
 20 21  2  0
 21 22  1  0
 22 23  2  0
 23 24  1  0
 24 25  2  0
 19 26  2  0
 26 27  1  0
 27 28  2  0
 28 29  1  0
 13 30  2  0
 30 31  1  0
 31 32  2  0
  5 33  1  0
 33 34  1  0
 34  2  1  0
 32  8  1  0
 32 11  1  0
 28 17  1  0
 25 20  1  0
M  END
>  <molecule_chembl_id>  (1175) 
CHEMBL3983272

>  <canonical_smiles>  (1175) 
CN1CCN(CCn2ncc3cc(C(=O)Nc4cc(-c5ccccc5)ccc4N)ccc32)CC1

>  <pchembl_value_mean>  (1175) 
7.96

>  <document_chembl_id>  (1175) 
CHEMBL3886267

$$$$

     RDKit          2D

 26 27  0  0  0  0  0  0  0  0999 V2000
   12.0000   -7.7942    0.0000 O   0  0  0  0  0  0  0  0  0  0  0  0
   12.7500   -6.4952    0.0000 C   0  0  0  0  0  0  0  0  0  0  0  0
   12.0000   -5.1962    0.0000 C   0  0  0  0  0  0  0  0  0  0  0  0
   10.5000   -5.1962    0.0000 C   0  0  0  0  0  0  0  0  0  0  0  0
    9.7500   -3.8971    0.0000 C   0  0  0  0  0  0  0  0  0  0  0  0
    8.2500   -3.8971    0.0000 C   0  0  0  0  0  0  0  0  0  0  0  0
    7.5000   -2.5981    0.0000 C   0  0  0  0  0  0  0  0  0  0  0  0
    6.0000   -2.5981    0.0000 C   0  0  0  0  0  0  0  0  0  0  0  0
    5.2500   -3.8971    0.0000 O   0  0  0  0  0  0  0  0  0  0  0  0
    5.2500   -1.2990    0.0000 N   0  0  0  0  0  0  0  0  0  0  0  0
    3.7500   -1.2990    0.0000 N   0  0  0  0  0  0  0  0  0  0  0  0
    3.0000    0.0000    0.0000 C   0  0  0  0  0  0  0  0  0  0  0  0
    1.5000    0.0000    0.0000 C   0  0  0  0  0  0  0  0  0  0  0  0
    0.7500   -1.2990    0.0000 C   0  0  0  0  0  0  0  0  0  0  0  0
   -0.7500   -1.2990    0.0000 C   0  0  0  0  0  0  0  0  0  0  0  0
   -1.5000    0.0000    0.0000 C   0  0  0  0  0  0  0  0  0  0  0  0
   -3.0000    0.0000    0.0000 C   0  0  0  0  0  0  0  0  0  0  0  0
   -3.7500    1.2990    0.0000 C   0  0  0  0  0  0  0  0  0  0  0  0
   -5.2500    1.2990    0.0000 C   0  0  0  0  0  0  0  0  0  0  0  0
   -6.0000    0.0000    0.0000 C   0  0  0  0  0  0  0  0  0  0  0  0
   -5.2500   -1.2990    0.0000 N   0  0  0  0  0  0  0  0  0  0  0  0
   -3.7500   -1.2990    0.0000 C   0  0  0  0  0  0  0  0  0  0  0  0
   -0.7500    1.2990    0.0000 C   0  0  0  0  0  0  0  0  0  0  0  0
    0.7500    1.2990    0.0000 C   0  0  0  0  0  0  0  0  0  0  0  0
   14.2500   -6.4952    0.0000 N   0  0  0  0  0  0  0  0  0  0  0  0
   15.0000   -7.7942    0.0000 O   0  0  0  0  0  0  0  0  0  0  0  0
  1  2  2  0
  2  3  1  0
  3  4  1  0
  4  5  1  0
  5  6  1  0
  6  7  1  0
  7  8  1  0
  8  9  2  0
  8 10  1  0
 10 11  1  0
 11 12  2  3
 12 13  1  0
 13 14  2  0
 14 15  1  0
 15 16  2  0
 16 17  1  0
 17 18  2  0
 18 19  1  0
 19 20  2  0
 20 21  1  0
 21 22  2  0
 16 23  1  0
 23 24  2  0
  2 25  1  0
 25 26  1  0
 24 13  1  0
 22 17  1  0
M  END
>  <molecule_chembl_id>  (1176) 
CHEMBL3759794

>  <canonical_smiles>  (1176) 
O=C(CCCCCC(=O)NN=Cc1ccc(-c2cccnc2)cc1)NO

>  <pchembl_value_mean>  (1176) 
7.97

>  <document_chembl_id>  (1176) 
CHEMBL3758132

$$$$

     RDKit          2D

 41 45  0  0  0  0  0  0  0  0999 V2000
   15.6012  -10.0524    0.0000 C   0  0  0  0  0  0  0  0  0  0  0  0
   14.2309   -9.4423    0.0000 C   0  0  0  0  0  0  0  0  0  0  0  0
   14.0741   -7.9505    0.0000 C   0  0  0  0  0  0  0  0  0  0  0  0
   12.7038   -7.3404    0.0000 N   0  0  0  0  0  0  0  0  0  0  0  0
   12.5470   -5.8487    0.0000 C   0  0  0  0  0  0  0  0  0  0  0  0
   11.1766   -5.2386    0.0000 C   0  0  0  0  0  0  0  0  0  0  0  0
    9.9631   -6.1202    0.0000 C   0  0  0  0  0  0  0  0  0  0  0  0
   10.1199   -7.6120    0.0000 C   0  0  0  0  0  0  0  0  0  0  0  0
   11.4902   -8.2221    0.0000 C   0  0  0  0  0  0  0  0  0  0  0  0
    9.0814   -4.9067    0.0000 C   0  0  0  0  0  0  0  0  0  0  0  0
    8.4713   -6.2770    0.0000 C   0  0  0  0  0  0  0  0  0  0  0  0
    7.2578   -7.1587    0.0000 C   0  0  0  0  0  0  0  0  0  0  0  0
    7.4146   -8.6505    0.0000 O   0  0  0  0  0  0  0  0  0  0  0  0
    5.8875   -6.5486    0.0000 N   0  0  0  0  0  0  0  0  0  0  0  0
    4.6740   -7.4303    0.0000 C   0  0  0  0  0  0  0  0  0  0  0  0
    4.8308   -8.9221    0.0000 C   0  0  0  0  0  0  0  0  0  0  0  0
    6.2011   -9.5322    0.0000 C   0  0  0  0  0  0  0  0  0  0  0  0
    6.3579  -11.0239    0.0000 C   0  0  0  0  0  0  0  0  0  0  0  0
    7.7282  -11.6340    0.0000 C   0  0  0  0  0  0  0  0  0  0  0  0
    7.8850  -13.1258    0.0000 C   0  0  0  0  0  0  0  0  0  0  0  0
    9.2553  -13.7359    0.0000 C   0  0  0  0  0  0  0  0  0  0  0  0
   10.4688  -12.8543    0.0000 O   0  0  0  0  0  0  0  0  0  0  0  0
    9.4121  -15.2277    0.0000 C   0  0  0  0  0  0  0  0  0  0  0  0
   10.7824  -15.8378    0.0000 C   0  0  0  0  0  0  0  0  0  0  0  0
    3.3037   -6.8202    0.0000 C   0  0  0  0  0  0  0  0  0  0  0  0
    2.0046   -7.5702    0.0000 N   0  0  0  0  0  0  0  0  0  0  0  0
    0.8899   -6.5665    0.0000 C   0  0  0  0  0  0  0  0  0  0  0  0
    1.5000   -5.1962    0.0000 C   0  0  0  0  0  0  0  0  0  0  0  0
    0.7500   -3.8971    0.0000 C   0  0  0  0  0  0  0  0  0  0  0  0
    1.5000   -2.5981    0.0000 C   0  0  0  0  0  0  0  0  0  0  0  0
    0.7500   -1.2990    0.0000 C   0  0  0  0  0  0  0  0  0  0  0  0
    1.5000    0.0000    0.0000 C   0  0  0  0  0  0  0  0  0  0  0  0
    0.7500    1.2990    0.0000 C   0  0  0  0  0  0  0  0  0  0  0  0
   -0.7500    1.2990    0.0000 C   0  0  0  0  0  0  0  0  0  0  0  0
   -1.5000    0.0000    0.0000 C   0  0  0  0  0  0  0  0  0  0  0  0
   -0.7500   -1.2990    0.0000 C   0  0  0  0  0  0  0  0  0  0  0  0
   -1.5000   -2.5981    0.0000 N   0  0  0  0  0  0  0  0  0  0  0  0
   -0.7500   -3.8971    0.0000 C   0  0  0  0  0  0  0  0  0  0  0  0
   -1.5000   -5.1962    0.0000 O   0  0  0  0  0  0  0  0  0  0  0  0
   -3.0000   -5.1962    0.0000 C   0  0  0  0  0  0  0  0  0  0  0  0
    2.9918   -5.3529    0.0000 N   0  0  0  0  0  0  0  0  0  0  0  0
  1  2  1  0
  2  3  1  0
  3  4  1  0
  4  5  1  0
  5  6  1  0
  6  7  1  0
  7  8  1  0
  8  9  1  0
  7 10  1  0
 10 11  1  0
 11 12  1  0
 12 13  2  0
 12 14  1  0
 14 15  1  0
 15 16  1  0
 16 17  1  0
 17 18  1  0
 18 19  1  0
 19 20  1  0
 20 21  1  0
 21 22  2  0
 21 23  1  0
 23 24  1  0
 15 25  1  0
 25 26  2  0
 26 27  1  0
 27 28  2  0
 28 29  1  0
 29 30  2  0
 30 31  1  0
 31 32  2  0
 32 33  1  0
 33 34  2  0
 34 35  1  0
 35 36  2  0
 36 37  1  0
 37 38  2  0
 38 39  1  0
 39 40  1  0
 28 41  1  0
  9  4  1  0
 41 25  1  0
 11  7  1  0
 38 29  1  0
 36 31  1  0
M  END
>  <molecule_chembl_id>  (1177) 
CHEMBL4640939

>  <canonical_smiles>  (1177) 
CCCN1CCC2(CC1)CC2C(=O)NC(CCCCCC(=O)CC)c1ncc(-c2cc3ccccc3nc2OC)[nH]1

>  <pchembl_value_mean>  (1177) 
7.99

>  <document_chembl_id>  (1177) 
CHEMBL4622849

$$$$

     RDKit          2D

 26 27  0  0  0  0  0  0  0  0999 V2000
   -2.6491   -1.6339    0.0000 C   0  0  0  0  0  0  0  0  0  0  0  0
   -1.5000   -2.5981    0.0000 C   0  0  0  0  0  0  0  0  0  0  0  0
   -2.6491   -3.5623    0.0000 C   0  0  0  0  0  0  0  0  0  0  0  0
   -0.7500   -3.8971    0.0000 C   0  0  0  0  0  0  0  0  0  0  0  0
    0.7500   -3.8971    0.0000 C   0  0  0  0  0  0  0  0  0  0  0  0
    1.5000   -5.1962    0.0000 O   0  0  0  0  0  0  0  0  0  0  0  0
    1.5000   -2.5981    0.0000 N   0  0  0  0  0  0  0  0  0  0  0  0
    0.7500   -1.2990    0.0000 C   0  0  0  0  0  0  0  0  0  0  0  0
    1.5000    0.0000    0.0000 C   0  0  0  0  0  0  0  0  0  0  0  0
    0.7500    1.2990    0.0000 C   0  0  0  0  0  0  0  0  0  0  0  0
   -0.7500    1.2990    0.0000 C   0  0  0  0  0  0  0  0  0  0  0  0
   -1.5000    2.5981    0.0000 N   0  0  0  0  0  0  0  0  0  0  0  0
   -0.7500    3.8971    0.0000 C   0  0  0  0  0  0  0  0  0  0  0  0
    0.7500    3.8971    0.0000 O   0  0  0  0  0  0  0  0  0  0  0  0
   -1.5000    5.1962    0.0000 C   0  0  0  0  0  0  0  0  0  0  0  0
   -0.7500    6.4952    0.0000 C   0  0  0  0  0  0  0  0  0  0  0  0
   -1.5000    7.7942    0.0000 C   0  0  0  0  0  0  0  0  0  0  0  0
   -0.7500    9.0933    0.0000 C   0  0  0  0  0  0  0  0  0  0  0  0
   -1.5000   10.3923    0.0000 C   0  0  0  0  0  0  0  0  0  0  0  0
   -0.7500   11.6913    0.0000 C   0  0  0  0  0  0  0  0  0  0  0  0
   -1.5000   12.9904    0.0000 C   0  0  0  0  0  0  0  0  0  0  0  0
   -3.0000   12.9904    0.0000 O   0  0  0  0  0  0  0  0  0  0  0  0
   -0.7500   14.2894    0.0000 N   0  0  0  0  0  0  0  0  0  0  0  0
   -1.5000   15.5885    0.0000 O   0  0  0  0  0  0  0  0  0  0  0  0
   -1.5000    0.0000    0.0000 C   0  0  0  0  0  0  0  0  0  0  0  0
   -0.7500   -1.2990    0.0000 C   0  0  0  0  0  0  0  0  0  0  0  0
  1  2  1  0
  2  3  1  0
  2  4  1  0
  4  5  1  0
  5  6  2  0
  5  7  1  0
  7  8  1  0
  8  9  2  0
  9 10  1  0
 10 11  2  0
 11 12  1  0
 12 13  1  0
 13 14  2  0
 13 15  1  0
 15 16  1  0
 16 17  1  0
 17 18  1  0
 18 19  1  0
 19 20  1  0
 20 21  1  0
 21 22  2  0
 21 23  1  0
 23 24  1  0
 11 25  1  0
 25 26  2  0
 26  2  1  0
 26  8  1  0
M  END
>  <molecule_chembl_id>  (1178) 
CHEMBL3311466

>  <canonical_smiles>  (1178) 
CC1(C)CC(=O)Nc2ccc(NC(=O)CCCCCCC(=O)NO)cc21

>  <pchembl_value_mean>  (1178) 
8.0

>  <document_chembl_id>  (1178) 
CHEMBL3351757

$$$$

     RDKit          2D

 33 37  0  0  0  0  0  0  0  0999 V2000
    3.7500   -3.8971    0.0000 N   0  0  0  0  0  0  0  0  0  0  0  0
    3.0000   -5.1962    0.0000 C   0  0  0  0  0  0  0  0  0  0  0  0
    3.7500   -6.4952    0.0000 C   0  0  0  0  0  0  0  0  0  0  0  0
    3.0000   -7.7942    0.0000 C   0  0  0  0  0  0  0  0  0  0  0  0
    1.5000   -7.7942    0.0000 C   0  0  0  0  0  0  0  0  0  0  0  0
    0.7500   -9.0933    0.0000 C   0  0  0  0  0  0  0  0  0  0  0  0
   -0.7500   -9.0933    0.0000 C   0  0  0  0  0  0  0  0  0  0  0  0
   -1.5000  -10.3923    0.0000 C   0  0  0  0  0  0  0  0  0  0  0  0
   -0.7500  -11.6913    0.0000 C   0  0  0  0  0  0  0  0  0  0  0  0
    0.7500  -11.6913    0.0000 C   0  0  0  0  0  0  0  0  0  0  0  0
    1.5000  -10.3923    0.0000 C   0  0  0  0  0  0  0  0  0  0  0  0
    0.7500   -6.4952    0.0000 C   0  0  0  0  0  0  0  0  0  0  0  0
    1.5000   -5.1962    0.0000 C   0  0  0  0  0  0  0  0  0  0  0  0
    0.7500   -3.8971    0.0000 N   0  0  0  0  0  0  0  0  0  0  0  0
    1.5000   -2.5981    0.0000 C   0  0  0  0  0  0  0  0  0  0  0  0
    3.0000   -2.5981    0.0000 O   0  0  0  0  0  0  0  0  0  0  0  0
    0.7500   -1.2990    0.0000 C   0  0  0  0  0  0  0  0  0  0  0  0
    1.5000    0.0000    0.0000 C   0  0  0  0  0  0  0  0  0  0  0  0
    0.7500    1.2990    0.0000 C   0  0  0  0  0  0  0  0  0  0  0  0
   -0.7500    1.2990    0.0000 C   0  0  0  0  0  0  0  0  0  0  0  0
   -1.5000    0.0000    0.0000 C   0  0  0  0  0  0  0  0  0  0  0  0
   -0.7500   -1.2990    0.0000 C   0  0  0  0  0  0  0  0  0  0  0  0
   -2.9672    0.3119    0.0000 N   0  0  0  0  0  0  0  0  0  0  0  0
   -3.1240    1.8037    0.0000 C   0  0  0  0  0  0  0  0  0  0  0  0
   -1.7537    2.4138    0.0000 N   0  0  0  0  0  0  0  0  0  0  0  0
   -1.4418    3.8810    0.0000 C   0  0  0  0  0  0  0  0  0  0  0  0
   -2.5565    4.8847    0.0000 C   0  0  0  0  0  0  0  0  0  0  0  0
   -2.2447    6.3519    0.0000 N   0  0  0  0  0  0  0  0  0  0  0  0
   -0.8181    6.8154    0.0000 C   0  0  0  0  0  0  0  0  0  0  0  0
   -0.5062    8.2826    0.0000 C   0  0  0  0  0  0  0  0  0  0  0  0
   -1.6209    9.2863    0.0000 O   0  0  0  0  0  0  0  0  0  0  0  0
   -3.0475    8.8228    0.0000 C   0  0  0  0  0  0  0  0  0  0  0  0
   -3.3594    7.3556    0.0000 C   0  0  0  0  0  0  0  0  0  0  0  0
  1  2  1  0
  2  3  2  0
  3  4  1  0
  4  5  2  0
  5  6  1  0
  6  7  2  0
  7  8  1  0
  8  9  2  0
  9 10  1  0
 10 11  2  0
  5 12  1  0
 12 13  2  0
 13 14  1  0
 14 15  1  0
 15 16  2  0
 15 17  1  0
 17 18  2  0
 18 19  1  0
 19 20  2  0
 20 21  1  0
 21 22  2  0
 21 23  1  0
 23 24  2  0
 24 25  1  0
 25 26  1  0
 26 27  1  0
 27 28  1  0
 28 29  1  0
 29 30  1  0
 30 31  1  0
 31 32  1  0
 32 33  1  0
 13  2  1  0
 22 17  1  0
 33 28  1  0
 11  6  1  0
 25 20  1  0
M  END
>  <molecule_chembl_id>  (1179) 
CHEMBL4853232

>  <canonical_smiles>  (1179) 
Nc1ccc(-c2ccccc2)cc1NC(=O)c1ccc2c(c1)ncn2CCN1CCOCC1

>  <pchembl_value_mean>  (1179) 
8.0

>  <document_chembl_id>  (1179) 
CHEMBL4828773

$$$$

     RDKit          2D

 26 29  0  0  0  0  0  0  0  0999 V2000
   -2.6401   -3.1891    0.0000 C   0  0  0  0  0  0  0  0  0  0  0  0
   -1.2135   -2.7256    0.0000 N   0  0  0  0  0  0  0  0  0  0  0  0
   -0.0000   -3.6073    0.0000 C   0  0  0  0  0  0  0  0  0  0  0  0
   -0.0000   -5.1073    0.0000 O   0  0  0  0  0  0  0  0  0  0  0  0
    1.2135   -2.7256    0.0000 C   0  0  0  0  0  0  0  0  0  0  0  0
    0.7500   -1.2990    0.0000 C   0  0  0  0  0  0  0  0  0  0  0  0
    1.5000    0.0000    0.0000 C   0  0  0  0  0  0  0  0  0  0  0  0
    0.7500    1.2990    0.0000 C   0  0  0  0  0  0  0  0  0  0  0  0
    1.5000    2.5981    0.0000 C   0  0  0  0  0  0  0  0  0  0  0  0
    0.7500    3.8971    0.0000 O   0  0  0  0  0  0  0  0  0  0  0  0
    3.0000    2.5981    0.0000 N   0  0  0  0  0  0  0  0  0  0  0  0
    3.7500    3.8971    0.0000 C   0  0  0  0  0  0  0  0  0  0  0  0
    5.2500    3.8971    0.0000 C   0  0  0  0  0  0  0  0  0  0  0  0
    6.0000    5.1962    0.0000 C   0  0  0  0  0  0  0  0  0  0  0  0
    7.5000    5.1962    0.0000 C   0  0  0  0  0  0  0  0  0  0  0  0
    8.3817    6.4097    0.0000 C   0  0  0  0  0  0  0  0  0  0  0  0
    9.8083    5.9462    0.0000 C   0  0  0  0  0  0  0  0  0  0  0  0
    9.8083    4.4462    0.0000 C   0  0  0  0  0  0  0  0  0  0  0  0
    8.3817    3.9826    0.0000 S   0  0  0  0  0  0  0  0  0  0  0  0
    5.2500    6.4952    0.0000 C   0  0  0  0  0  0  0  0  0  0  0  0
    3.7500    6.4952    0.0000 C   0  0  0  0  0  0  0  0  0  0  0  0
    3.0000    5.1962    0.0000 C   0  0  0  0  0  0  0  0  0  0  0  0
    1.5000    5.1962    0.0000 N   0  0  0  0  0  0  0  0  0  0  0  0
   -0.7500    1.2990    0.0000 C   0  0  0  0  0  0  0  0  0  0  0  0
   -1.5000    0.0000    0.0000 C   0  0  0  0  0  0  0  0  0  0  0  0
   -0.7500   -1.2990    0.0000 C   0  0  0  0  0  0  0  0  0  0  0  0
  1  2  1  0
  2  3  1  0
  3  4  2  0
  3  5  1  0
  5  6  1  0
  6  7  2  0
  7  8  1  0
  8  9  1  0
  9 10  2  0
  9 11  1  0
 11 12  1  0
 12 13  2  0
 13 14  1  0
 14 15  1  0
 15 16  2  0
 16 17  1  0
 17 18  2  0
 18 19  1  0
 14 20  2  0
 20 21  1  0
 21 22  2  0
 22 23  1  0
  8 24  2  0
 24 25  1  0
 25 26  2  0
 26  2  1  0
 26  6  1  0
 22 12  1  0
 19 15  1  0
M  END
>  <molecule_chembl_id>  (1180) 
CHEMBL4848779

>  <canonical_smiles>  (1180) 
CN1C(=O)Cc2cc(C(=O)Nc3cc(-c4cccs4)ccc3N)ccc21

>  <pchembl_value_mean>  (1180) 
8.0

>  <document_chembl_id>  (1180) 
CHEMBL4828773

$$$$

     RDKit          2D

 43 47  0  0  0  0  0  0  0  0999 V2000
   10.7824  -15.8378    0.0000 C   0  0  0  0  0  0  0  0  0  0  0  0
    9.4121  -15.2277    0.0000 C   0  0  0  0  0  0  0  0  0  0  0  0
    9.2553  -13.7359    0.0000 C   0  0  0  0  0  0  0  0  0  0  0  0
   10.4688  -12.8543    0.0000 O   0  0  0  0  0  0  0  0  0  0  0  0
    7.8850  -13.1258    0.0000 C   0  0  0  0  0  0  0  0  0  0  0  0
    7.7282  -11.6340    0.0000 C   0  0  0  0  0  0  0  0  0  0  0  0
    6.3579  -11.0239    0.0000 C   0  0  0  0  0  0  0  0  0  0  0  0
    6.2011   -9.5322    0.0000 C   0  0  0  0  0  0  0  0  0  0  0  0
    4.8308   -8.9221    0.0000 C   0  0  0  0  0  0  0  0  0  0  0  0
    4.6740   -7.4303    0.0000 C   0  0  0  0  0  0  0  0  0  0  0  0
    5.8875   -6.5486    0.0000 N   0  0  0  0  0  0  0  0  0  0  0  0
    7.2578   -7.1587    0.0000 C   0  0  0  0  0  0  0  0  0  0  0  0
    7.4146   -8.6505    0.0000 O   0  0  0  0  0  0  0  0  0  0  0  0
    8.4713   -6.2770    0.0000 C   0  0  0  0  0  0  0  0  0  0  0  0
    9.0814   -4.9067    0.0000 C   0  0  0  0  0  0  0  0  0  0  0  0
    9.9631   -6.1202    0.0000 C   0  0  0  0  0  0  0  0  0  0  0  0
   10.1199   -7.6120    0.0000 C   0  0  0  0  0  0  0  0  0  0  0  0
   11.4902   -8.2221    0.0000 C   0  0  0  0  0  0  0  0  0  0  0  0
   12.7038   -7.3404    0.0000 N   0  0  0  0  0  0  0  0  0  0  0  0
   14.0741   -7.9505    0.0000 C   0  0  0  0  0  0  0  0  0  0  0  0
   14.2309   -9.4423    0.0000 C   0  0  0  0  0  0  0  0  0  0  0  0
   14.3877  -10.9341    0.0000 F   0  0  0  0  0  0  0  0  0  0  0  0
   15.7227   -9.2855    0.0000 F   0  0  0  0  0  0  0  0  0  0  0  0
   12.7391   -9.5991    0.0000 F   0  0  0  0  0  0  0  0  0  0  0  0
   12.5470   -5.8487    0.0000 C   0  0  0  0  0  0  0  0  0  0  0  0
   11.1766   -5.2386    0.0000 C   0  0  0  0  0  0  0  0  0  0  0  0
    3.3037   -6.8202    0.0000 C   0  0  0  0  0  0  0  0  0  0  0  0
    2.0046   -7.5702    0.0000 N   0  0  0  0  0  0  0  0  0  0  0  0
    0.8899   -6.5665    0.0000 C   0  0  0  0  0  0  0  0  0  0  0  0
    1.5000   -5.1962    0.0000 C   0  0  0  0  0  0  0  0  0  0  0  0
    0.7500   -3.8971    0.0000 C   0  0  0  0  0  0  0  0  0  0  0  0
    1.5000   -2.5981    0.0000 C   0  0  0  0  0  0  0  0  0  0  0  0
    0.7500   -1.2990    0.0000 C   0  0  0  0  0  0  0  0  0  0  0  0
    1.5000    0.0000    0.0000 C   0  0  0  0  0  0  0  0  0  0  0  0
    0.7500    1.2990    0.0000 C   0  0  0  0  0  0  0  0  0  0  0  0
   -0.7500    1.2990    0.0000 C   0  0  0  0  0  0  0  0  0  0  0  0
   -1.5000    0.0000    0.0000 C   0  0  0  0  0  0  0  0  0  0  0  0
   -0.7500   -1.2990    0.0000 C   0  0  0  0  0  0  0  0  0  0  0  0
   -1.5000   -2.5981    0.0000 N   0  0  0  0  0  0  0  0  0  0  0  0
   -0.7500   -3.8971    0.0000 C   0  0  0  0  0  0  0  0  0  0  0  0
   -1.5000   -5.1962    0.0000 O   0  0  0  0  0  0  0  0  0  0  0  0
   -3.0000   -5.1962    0.0000 C   0  0  0  0  0  0  0  0  0  0  0  0
    2.9918   -5.3529    0.0000 N   0  0  0  0  0  0  0  0  0  0  0  0
  1  2  1  0
  2  3  1  0
  3  4  2  0
  3  5  1  0
  5  6  1  0
  6  7  1  0
  7  8  1  0
  8  9  1  0
  9 10  1  0
 10 11  1  0
 11 12  1  0
 12 13  2  0
 12 14  1  0
 14 15  1  0
 15 16  1  0
 16 17  1  0
 17 18  1  0
 18 19  1  0
 19 20  1  0
 20 21  1  0
 21 22  1  0
 21 23  1  0
 21 24  1  0
 19 25  1  0
 25 26  1  0
 10 27  1  0
 27 28  2  0
 28 29  1  0
 29 30  2  0
 30 31  1  0
 31 32  2  0
 32 33  1  0
 33 34  2  0
 34 35  1  0
 35 36  2  0
 36 37  1  0
 37 38  2  0
 38 39  1  0
 39 40  2  0
 40 41  1  0
 41 42  1  0
 30 43  1  0
 16 14  1  0
 43 27  1  0
 26 16  1  0
 40 31  1  0
 38 33  1  0
M  END
>  <molecule_chembl_id>  (1181) 
CHEMBL4632432

>  <canonical_smiles>  (1181) 
CCC(=O)CCCCCC(NC(=O)C1CC12CCN(CC(F)(F)F)CC2)c1ncc(-c2cc3ccccc3nc2OC)[nH]1

>  <pchembl_value_mean>  (1181) 
8.01

>  <document_chembl_id>  (1181) 
CHEMBL4622849

$$$$

     RDKit          2D

 34 36  0  0  0  0  0  0  0  0999 V2000
    1.5922    6.6948    0.0000 C   0  0  0  0  0  0  0  0  0  0  0  0
    0.1004    6.8516    0.0000 C   0  0  0  0  0  0  0  0  0  0  0  0
   -0.5097    8.2219    0.0000 C   0  0  0  0  0  0  0  0  0  0  0  0
   -0.7813    5.6380    0.0000 C   0  0  0  0  0  0  0  0  0  0  0  0
    0.2369    4.5365    0.0000 N   0  0  0  0  0  0  0  0  0  0  0  0
    0.7561    3.1293    0.0000 C   0  0  0  0  0  0  0  0  0  0  0  0
    2.2376    3.3639    0.0000 O   0  0  0  0  0  0  0  0  0  0  0  0
    0.3943    1.2135    0.0000 C   0  0  0  0  0  0  0  0  0  0  0  0
    0.4790    2.4256    0.0000 C   0  0  0  0  0  0  0  0  0  0  0  0
    1.2760    0.0000    0.0000 C   0  0  0  0  0  0  0  0  0  0  0  0
    0.3943   -1.2135    0.0000 S   0  0  0  0  0  0  0  0  0  0  0  0
   -1.0323   -0.7500    0.0000 C   0  0  0  0  0  0  0  0  0  0  0  0
   -1.0323    0.7500    0.0000 N   0  0  0  0  0  0  0  0  0  0  0  0
   -2.4396   -1.2692    0.0000 C   0  0  0  0  0  0  0  0  0  0  0  0
   -3.2233   -2.5481    0.0000 C   0  0  0  0  0  0  0  0  0  0  0  0
   -4.6819   -2.1980    0.0000 S   0  0  0  0  0  0  0  0  0  0  0  0
   -5.3006   -0.5823    0.0000 C   0  0  0  0  0  0  0  0  0  0  0  0
   -3.9384   -1.2103    0.0000 N   0  0  0  0  0  0  0  0  0  0  0  0
   -6.3188    0.5192    0.0000 C   0  0  0  0  0  0  0  0  0  0  0  0
   -6.8380    1.9265    0.0000 N   0  0  0  0  0  0  0  0  0  0  0  0
   -6.7791    3.4253    0.0000 C   0  0  0  0  0  0  0  0  0  0  0  0
   -8.2377    3.7755    0.0000 O   0  0  0  0  0  0  0  0  0  0  0  0
   -6.1511    4.7875    0.0000 C   0  0  0  0  0  0  0  0  0  0  0  0
   -7.6500    4.8464    0.0000 F   0  0  0  0  0  0  0  0  0  0  0  0
   -6.6703    6.1948    0.0000 F   0  0  0  0  0  0  0  0  0  0  0  0
   -5.0496    5.8057    0.0000 C   0  0  0  0  0  0  0  0  0  0  0  0
   -5.8334    7.0847    0.0000 C   0  0  0  0  0  0  0  0  0  0  0  0
   -5.1177    8.4029    0.0000 C   0  0  0  0  0  0  0  0  0  0  0  0
   -5.9014    9.6819    0.0000 C   0  0  0  0  0  0  0  0  0  0  0  0
   -5.1857   11.0001    0.0000 C   0  0  0  0  0  0  0  0  0  0  0  0
   -5.9694   12.2791    0.0000 S   0  0  0  0  0  0  0  0  0  0  0  0
   -3.6424    6.3249    0.0000 N   0  0  0  0  0  0  0  0  0  0  0  0
   -2.1435    6.2660    0.0000 C   0  0  0  0  0  0  0  0  0  0  0  0
   -1.7933    7.7246    0.0000 O   0  0  0  0  0  0  0  0  0  0  0  0
  1  2  1  0
  2  3  1  0
  2  4  1  0
  4  5  1  0
  5  6  1  0
  6  7  2  0
  6  8  1  0
  8  9  1  0
  8 10  1  0
 10 11  1  0
 11 12  1  0
 12 13  2  0
 12 14  1  0
 14 15  2  0
 15 16  1  0
 16 17  1  0
 17 18  2  0
 17 19  1  0
 19 20  1  0
 20 21  1  0
 21 22  2  0
 21 23  1  0
 23 24  1  0
 23 25  1  0
 23 26  1  0
 26 27  1  0
 27 28  2  3
 28 29  1  0
 29 30  1  0
 30 31  1  0
 26 32  1  0
 32 33  1  0
 33 34  2  0
 33  4  1  0
 13  8  1  0
 18 14  1  0
M  END
>  <molecule_chembl_id>  (1182) 
CHEMBL4516759

>  <canonical_smiles>  (1182) 
CC(C)C1NC(=O)C2(C)CSC(=N2)c2csc(n2)CNC(=O)C(F)(F)C(C=CCCS)NC1=O

>  <pchembl_value_mean>  (1182) 
8.03

>  <document_chembl_id>  (1182) 
CHEMBL4359920

$$$$

     RDKit          2D

 40 42  0  0  0  0  0  0  0  0999 V2000
   -3.7500    3.8971    0.0000 C   0  0  0  0  0  0  0  0  0  0  0  0
   -2.2500    3.8971    0.0000 C   0  0  0  0  0  0  0  0  0  0  0  0
   -1.5000    5.1962    0.0000 C   0  0  0  0  0  0  0  0  0  0  0  0
   -1.5000    2.5981    0.0000 S   0  0  0  0  0  0  0  0  0  0  0  0
   -0.2010    3.3481    0.0000 O   0  0  0  0  0  0  0  0  0  0  0  0
   -2.7990    1.8481    0.0000 O   0  0  0  0  0  0  0  0  0  0  0  0
   -0.7500    1.2990    0.0000 C   0  0  0  0  0  0  0  0  0  0  0  0
   -1.5000   -0.0000    0.0000 C   0  0  0  0  0  0  0  0  0  0  0  0
   -0.7500   -1.2990    0.0000 C   0  0  0  0  0  0  0  0  0  0  0  0
    0.7500   -1.2990    0.0000 C   0  0  0  0  0  0  0  0  0  0  0  0
    1.5000   -0.0000    0.0000 C   0  0  0  0  0  0  0  0  0  0  0  0
    0.7500    1.2990    0.0000 C   0  0  0  0  0  0  0  0  0  0  0  0
    1.5000    2.5981    0.0000 N   0  0  0  0  0  0  0  0  0  0  0  0
    3.0000    2.5981    0.0000 C   0  0  0  0  0  0  0  0  0  0  0  0
    3.7500    1.2990    0.0000 N   0  0  0  0  0  0  0  0  0  0  0  0
    5.2500    1.2990    0.0000 C   0  0  0  0  0  0  0  0  0  0  0  0
    6.0000   -0.0000    0.0000 N   0  0  0  0  0  0  0  0  0  0  0  0
    7.5000   -0.0000    0.0000 C   0  0  0  0  0  0  0  0  0  0  0  0
    8.2500   -1.2990    0.0000 C   0  0  0  0  0  0  0  0  0  0  0  0
    9.7500   -1.2990    0.0000 C   0  0  0  0  0  0  0  0  0  0  0  0
   10.5000   -0.0000    0.0000 C   0  0  0  0  0  0  0  0  0  0  0  0
   12.0000   -0.0000    0.0000 N   0  0  0  0  0  0  0  0  0  0  0  0
   12.7500   -1.2990    0.0000 C   0  0  0  0  0  0  0  0  0  0  0  0
   12.0000   -2.5981    0.0000 O   0  0  0  0  0  0  0  0  0  0  0  0
   14.2500   -1.2990    0.0000 C   0  0  0  0  0  0  0  0  0  0  0  0
   15.0000   -2.5981    0.0000 C   0  0  0  0  0  0  0  0  0  0  0  0
   16.5000   -2.5981    0.0000 C   0  0  0  0  0  0  0  0  0  0  0  0
   17.2500   -3.8971    0.0000 C   0  0  0  0  0  0  0  0  0  0  0  0
   18.7500   -3.8971    0.0000 C   0  0  0  0  0  0  0  0  0  0  0  0
   19.5000   -5.1962    0.0000 C   0  0  0  0  0  0  0  0  0  0  0  0
   21.0000   -5.1962    0.0000 C   0  0  0  0  0  0  0  0  0  0  0  0
   21.7500   -3.8971    0.0000 O   0  0  0  0  0  0  0  0  0  0  0  0
   21.7500   -6.4952    0.0000 N   0  0  0  0  0  0  0  0  0  0  0  0
   23.2500   -6.4952    0.0000 O   0  0  0  0  0  0  0  0  0  0  0  0
    9.7500    1.2990    0.0000 C   0  0  0  0  0  0  0  0  0  0  0  0
    8.2500    1.2990    0.0000 C   0  0  0  0  0  0  0  0  0  0  0  0
    6.0000    2.5981    0.0000 N   0  0  0  0  0  0  0  0  0  0  0  0
    5.2500    3.8971    0.0000 C   0  0  0  0  0  0  0  0  0  0  0  0
    3.7500    3.8971    0.0000 C   0  0  0  0  0  0  0  0  0  0  0  0
    3.0000    5.1962    0.0000 Cl  0  0  0  0  0  0  0  0  0  0  0  0
  1  2  1  0
  2  3  1  0
  2  4  1  0
  4  5  2  0
  4  6  2  0
  4  7  1  0
  7  8  2  0
  8  9  1  0
  9 10  2  0
 10 11  1  0
 11 12  2  0
 12 13  1  0
 13 14  1  0
 14 15  2  0
 15 16  1  0
 16 17  1  0
 17 18  1  0
 18 19  2  0
 19 20  1  0
 20 21  2  0
 21 22  1  0
 22 23  1  0
 23 24  2  0
 23 25  1  0
 25 26  1  0
 26 27  1  0
 27 28  1  0
 28 29  1  0
 29 30  1  0
 30 31  1  0
 31 32  2  0
 31 33  1  0
 33 34  1  0
 21 35  1  0
 35 36  2  0
 16 37  2  0
 37 38  1  0
 38 39  2  0
 39 40  1  0
 12  7  1  0
 39 14  1  0
 36 18  1  0
M  END
>  <molecule_chembl_id>  (1183) 
CHEMBL4855319

>  <canonical_smiles>  (1183) 
CC(C)S(=O)(=O)c1ccccc1Nc1nc(Nc2ccc(NC(=O)CCCCCCC(=O)NO)cc2)ncc1Cl

>  <pchembl_value_mean>  (1183) 
8.03

>  <document_chembl_id>  (1183) 
CHEMBL4828709

$$$$

     RDKit          2D

 37 40  0  0  0  0  0  0  0  0999 V2000
   14.7990   -8.5442    0.0000 C   0  0  0  0  0  0  0  0  0  0  0  0
   13.2990   -8.5442    0.0000 C   0  0  0  0  0  0  0  0  0  0  0  0
   12.5490   -7.2452    0.0000 C   0  0  0  0  0  0  0  0  0  0  0  0
   13.2990   -5.9462    0.0000 O   0  0  0  0  0  0  0  0  0  0  0  0
   11.0490   -7.2452    0.0000 C   0  0  0  0  0  0  0  0  0  0  0  0
   10.2990   -5.9462    0.0000 C   0  0  0  0  0  0  0  0  0  0  0  0
    8.7990   -5.9462    0.0000 C   0  0  0  0  0  0  0  0  0  0  0  0
    8.0490   -4.6471    0.0000 C   0  0  0  0  0  0  0  0  0  0  0  0
    6.5490   -4.6471    0.0000 C   0  0  0  0  0  0  0  0  0  0  0  0
    5.7990   -3.3481    0.0000 C   0  0  0  0  0  0  0  0  0  0  0  0
    4.2990   -3.3481    0.0000 N   0  0  0  0  0  0  0  0  0  0  0  0
    3.5490   -2.0490    0.0000 C   0  0  0  0  0  0  0  0  0  0  0  0
    4.2990   -0.7500    0.0000 O   0  0  0  0  0  0  0  0  0  0  0  0
    2.0490   -2.0490    0.0000 C   0  0  0  0  0  0  0  0  0  0  0  0
    0.7500   -2.7990    0.0000 C   0  0  0  0  0  0  0  0  0  0  0  0
    0.7500   -1.2990    0.0000 C   0  0  0  0  0  0  0  0  0  0  0  0
    1.5000    0.0000    0.0000 C   0  0  0  0  0  0  0  0  0  0  0  0
    0.7500    1.2990    0.0000 C   0  0  0  0  0  0  0  0  0  0  0  0
   -0.7500    1.2990    0.0000 N   0  0  0  0  0  0  0  0  0  0  0  0
   -1.5000    2.5981    0.0000 C   0  0  0  0  0  0  0  0  0  0  0  0
   -0.7500    3.8971    0.0000 C   0  0  0  0  0  0  0  0  0  0  0  0
   -1.5000    0.0000    0.0000 C   0  0  0  0  0  0  0  0  0  0  0  0
   -0.7500   -1.2990    0.0000 C   0  0  0  0  0  0  0  0  0  0  0  0
    6.5490   -2.0490    0.0000 C   0  0  0  0  0  0  0  0  0  0  0  0
    5.9389   -0.6787    0.0000 N   0  0  0  0  0  0  0  0  0  0  0  0
    7.0537    0.3250    0.0000 C   0  0  0  0  0  0  0  0  0  0  0  0
    8.3527   -0.4250    0.0000 C   0  0  0  0  0  0  0  0  0  0  0  0
    9.7230    0.1851    0.0000 C   0  0  0  0  0  0  0  0  0  0  0  0
   10.9365   -0.6966    0.0000 C   0  0  0  0  0  0  0  0  0  0  0  0
   12.3069   -0.0865    0.0000 C   0  0  0  0  0  0  0  0  0  0  0  0
   13.5204   -0.9682    0.0000 F   0  0  0  0  0  0  0  0  0  0  0  0
   12.4636    1.4053    0.0000 C   0  0  0  0  0  0  0  0  0  0  0  0
   11.2501    2.2870    0.0000 C   0  0  0  0  0  0  0  0  0  0  0  0
    9.8798    1.6769    0.0000 C   0  0  0  0  0  0  0  0  0  0  0  0
    8.6663    2.5585    0.0000 O   0  0  0  0  0  0  0  0  0  0  0  0
    8.8231    4.0503    0.0000 C   0  0  0  0  0  0  0  0  0  0  0  0
    8.0408   -1.8922    0.0000 N   0  0  0  0  0  0  0  0  0  0  0  0
  1  2  1  0
  2  3  1  0
  3  4  2  0
  3  5  1  0
  5  6  1  0
  6  7  1  0
  7  8  1  0
  8  9  1  0
  9 10  1  0
 10 11  1  0
 11 12  1  0
 12 13  2  0
 12 14  1  0
 14 15  1  0
 15 16  1  0
 16 17  1  0
 17 18  1  0
 18 19  1  0
 19 20  1  0
 20 21  1  0
 19 22  1  0
 22 23  1  0
 10 24  1  0
 24 25  2  0
 25 26  1  0
 26 27  2  0
 27 28  1  0
 28 29  2  0
 29 30  1  0
 30 31  1  0
 30 32  2  0
 32 33  1  0
 33 34  2  0
 34 35  1  0
 35 36  1  0
 27 37  1  0
 16 14  1  0
 37 24  1  0
 23 16  1  0
 34 28  1  0
M  END
>  <molecule_chembl_id>  (1184) 
CHEMBL4759606

>  <canonical_smiles>  (1184) 
CCC(=O)CCCCCC(NC(=O)C1CC12CCN(CC)CC2)c1ncc(-c2cc(F)ccc2OC)[nH]1

>  <pchembl_value_mean>  (1184) 
8.03

>  <document_chembl_id>  (1184) 
CHEMBL4680369

$$$$

     RDKit          2D

 30 32  0  0  0  0  0  0  0  0999 V2000
    3.0000   -7.7942    0.0000 C   0  0  0  0  0  0  0  0  0  0  0  0
    3.7500   -6.4952    0.0000 O   0  0  0  0  0  0  0  0  0  0  0  0
    3.0000   -5.1962    0.0000 C   0  0  0  0  0  0  0  0  0  0  0  0
    1.5000   -5.1962    0.0000 C   0  0  0  0  0  0  0  0  0  0  0  0
    0.7500   -3.8971    0.0000 C   0  0  0  0  0  0  0  0  0  0  0  0
    1.5000   -2.5981    0.0000 C   0  0  0  0  0  0  0  0  0  0  0  0
    0.7500   -1.2990    0.0000 C   0  0  0  0  0  0  0  0  0  0  0  0
    1.5000    0.0000    0.0000 C   0  0  0  0  0  0  0  0  0  0  0  0
    0.7500    1.2990    0.0000 C   0  0  0  0  0  0  0  0  0  0  0  0
   -0.7500    1.2990    0.0000 C   0  0  0  0  0  0  0  0  0  0  0  0
   -1.7537    2.4138    0.0000 C   0  0  0  0  0  0  0  0  0  0  0  0
   -1.4418    3.8810    0.0000 N   0  0  0  0  0  0  0  0  0  0  0  0
   -2.5565    4.8847    0.0000 C   0  0  0  0  0  0  0  0  0  0  0  0
   -3.9831    4.4211    0.0000 O   0  0  0  0  0  0  0  0  0  0  0  0
   -2.2447    6.3519    0.0000 C   0  0  0  0  0  0  0  0  0  0  0  0
   -3.3594    7.3556    0.0000 C   0  0  0  0  0  0  0  0  0  0  0  0
   -3.0475    8.8228    0.0000 C   0  0  0  0  0  0  0  0  0  0  0  0
   -4.1622    9.8265    0.0000 C   0  0  0  0  0  0  0  0  0  0  0  0
   -3.8504   11.2937    0.0000 C   0  0  0  0  0  0  0  0  0  0  0  0
   -4.9651   12.2974    0.0000 C   0  0  0  0  0  0  0  0  0  0  0  0
   -4.6532   13.7646    0.0000 C   0  0  0  0  0  0  0  0  0  0  0  0
   -3.2266   14.2282    0.0000 O   0  0  0  0  0  0  0  0  0  0  0  0
   -5.7679   14.7683    0.0000 N   0  0  0  0  0  0  0  0  0  0  0  0
   -5.4561   16.2356    0.0000 O   0  0  0  0  0  0  0  0  0  0  0  0
   -3.1240    1.8037    0.0000 N   0  0  0  0  0  0  0  0  0  0  0  0
   -2.9672    0.3119    0.0000 N   0  0  0  0  0  0  0  0  0  0  0  0
   -1.5000    0.0000    0.0000 C   0  0  0  0  0  0  0  0  0  0  0  0
   -0.7500   -1.2990    0.0000 N   0  0  0  0  0  0  0  0  0  0  0  0
    3.0000   -2.5981    0.0000 C   0  0  0  0  0  0  0  0  0  0  0  0
    3.7500   -3.8971    0.0000 C   0  0  0  0  0  0  0  0  0  0  0  0
  1  2  1  0
  2  3  1  0
  3  4  2  0
  4  5  1  0
  5  6  2  0
  6  7  1  0
  7  8  2  0
  8  9  1  0
  9 10  2  0
 10 11  1  0
 11 12  1  0
 12 13  1  0
 13 14  2  0
 13 15  1  0
 15 16  1  0
 16 17  1  0
 17 18  1  0
 18 19  1  0
 19 20  1  0
 20 21  1  0
 21 22  2  0
 21 23  1  0
 23 24  1  0
 11 25  2  0
 25 26  1  0
 26 27  1  0
 27 28  2  0
  6 29  1  0
 29 30  2  0
 30  3  1  0
 28  7  1  0
 27 10  1  0
M  END
>  <molecule_chembl_id>  (1185) 
CHEMBL4776599

>  <canonical_smiles>  (1185) 
COc1ccc(-c2ccc3c(NC(=O)CCCCCCC(=O)NO)n[nH]c3n2)cc1

>  <pchembl_value_mean>  (1185) 
8.05

>  <document_chembl_id>  (1185) 
CHEMBL4765277

$$$$

     RDKit          2D

 25 27  0  0  0  0  0  0  0  0999 V2000
   -7.5000   -5.1962    0.0000 O   0  0  0  0  0  0  0  0  0  0  0  0
   -6.0000   -5.1962    0.0000 C   0  0  0  0  0  0  0  0  0  0  0  0
   -5.2500   -6.4952    0.0000 N   0  0  0  0  0  0  0  0  0  0  0  0
   -6.0000   -7.7942    0.0000 O   0  0  0  0  0  0  0  0  0  0  0  0
   -5.2500   -3.8971    0.0000 C   0  0  0  0  0  0  0  0  0  0  0  0
   -3.7500   -3.8971    0.0000 C   0  0  0  0  0  0  0  0  0  0  0  0
   -3.0000   -2.5981    0.0000 N   0  0  0  0  0  0  0  0  0  0  0  0
   -3.7500   -1.2990    0.0000 C   0  0  0  0  0  0  0  0  0  0  0  0
   -3.0000    0.0000    0.0000 N   0  0  0  0  0  0  0  0  0  0  0  0
   -3.7500    1.2990    0.0000 C   0  0  0  0  0  0  0  0  0  0  0  0
   -2.6009    2.2632    0.0000 C   0  0  0  0  0  0  0  0  0  0  0  0
   -1.1914    1.7502    0.0000 C   0  0  0  0  0  0  0  0  0  0  0  0
   -0.0423    2.7144    0.0000 C   0  0  0  0  0  0  0  0  0  0  0  0
    1.3672    2.2013    0.0000 C   0  0  0  0  0  0  0  0  0  0  0  0
    2.7768    1.6883    0.0000 F   0  0  0  0  0  0  0  0  0  0  0  0
    1.8802    3.6109    0.0000 F   0  0  0  0  0  0  0  0  0  0  0  0
    0.8542    0.7918    0.0000 F   0  0  0  0  0  0  0  0  0  0  0  0
   -0.3028    4.1916    0.0000 C   0  0  0  0  0  0  0  0  0  0  0  0
   -1.7123    4.7046    0.0000 C   0  0  0  0  0  0  0  0  0  0  0  0
   -2.8614    3.7404    0.0000 C   0  0  0  0  0  0  0  0  0  0  0  0
   -4.2709    4.2535    0.0000 F   0  0  0  0  0  0  0  0  0  0  0  0
   -4.8991    2.2632    0.0000 C   0  0  0  0  0  0  0  0  0  0  0  0
   -5.1595    0.7860    0.0000 C   0  0  0  0  0  0  0  0  0  0  0  0
   -5.2500   -1.2990    0.0000 N   0  0  0  0  0  0  0  0  0  0  0  0
   -6.0000   -2.5981    0.0000 C   0  0  0  0  0  0  0  0  0  0  0  0
  1  2  2  0
  2  3  1  0
  3  4  1  0
  2  5  1  0
  5  6  2  0
  6  7  1  0
  7  8  2  0
  8  9  1  0
  9 10  1  0
 10 11  1  0
 11 12  2  0
 12 13  1  0
 13 14  1  0
 14 15  1  0
 14 16  1  0
 14 17  1  0
 13 18  2  0
 18 19  1  0
 19 20  2  0
 20 21  1  0
 10 22  1  0
 22 23  1  0
  8 24  1  0
 24 25  2  0
 25  5  1  0
 23 10  1  0
 20 11  1  0
M  END
>  <molecule_chembl_id>  (1186) 
CHEMBL3655995

>  <canonical_smiles>  (1186) 
O=C(NO)c1cnc(NC2(c3cc(C(F)(F)F)ccc3F)CC2)nc1

>  <pchembl_value_mean>  (1186) 
8.05

>  <document_chembl_id>  (1186) 
CHEMBL3639071

$$$$

     RDKit          2D

 23 24  0  0  0  0  0  0  0  0999 V2000
   -2.6401   -3.1891    0.0000 C   0  0  0  0  0  0  0  0  0  0  0  0
   -1.2135   -2.7256    0.0000 N   0  0  0  0  0  0  0  0  0  0  0  0
   -0.0000   -3.6073    0.0000 C   0  0  0  0  0  0  0  0  0  0  0  0
   -0.0000   -5.1073    0.0000 C   0  0  0  0  0  0  0  0  0  0  0  0
   -1.2990   -5.8573    0.0000 C   0  0  0  0  0  0  0  0  0  0  0  0
   -1.2990   -7.3573    0.0000 C   0  0  0  0  0  0  0  0  0  0  0  0
   -2.5981   -8.1073    0.0000 C   0  0  0  0  0  0  0  0  0  0  0  0
   -3.8971   -7.3573    0.0000 O   0  0  0  0  0  0  0  0  0  0  0  0
   -2.5981   -9.6073    0.0000 O   0  0  0  0  0  0  0  0  0  0  0  0
    1.2135   -2.7256    0.0000 N   0  0  0  0  0  0  0  0  0  0  0  0
    0.7500   -1.2990    0.0000 C   0  0  0  0  0  0  0  0  0  0  0  0
    1.5000    0.0000    0.0000 C   0  0  0  0  0  0  0  0  0  0  0  0
    0.7500    1.2990    0.0000 C   0  0  0  0  0  0  0  0  0  0  0  0
    1.5000    2.5981    0.0000 N   0  0  0  0  0  0  0  0  0  0  0  0
    3.0000    2.5981    0.0000 C   0  0  0  0  0  0  0  0  0  0  0  0
    3.7500    3.8971    0.0000 C   0  0  0  0  0  0  0  0  0  0  0  0
    5.2500    3.8971    0.0000 Cl  0  0  0  0  0  0  0  0  0  0  0  0
    0.7500    3.8971    0.0000 C   0  0  0  0  0  0  0  0  0  0  0  0
    1.5000    5.1962    0.0000 C   0  0  0  0  0  0  0  0  0  0  0  0
    0.7500    6.4952    0.0000 Cl  0  0  0  0  0  0  0  0  0  0  0  0
   -0.7500    1.2990    0.0000 C   0  0  0  0  0  0  0  0  0  0  0  0
   -1.5000    0.0000    0.0000 C   0  0  0  0  0  0  0  0  0  0  0  0
   -0.7500   -1.2990    0.0000 C   0  0  0  0  0  0  0  0  0  0  0  0
  1  2  1  0
  2  3  1  0
  3  4  1  0
  4  5  1  0
  5  6  1  0
  6  7  1  0
  7  8  2  0
  7  9  1  0
  3 10  2  0
 10 11  1  0
 11 12  2  0
 12 13  1  0
 13 14  1  0
 14 15  1  0
 15 16  1  0
 16 17  1  0
 14 18  1  0
 18 19  1  0
 19 20  1  0
 13 21  2  0
 21 22  1  0
 22 23  2  0
 23  2  1  0
 23 11  1  0
M  END
>  <molecule_chembl_id>  (1187) 
CHEMBL487253

>  <canonical_smiles>  (1187) 
Cn1c(CCCC(=O)O)nc2cc(N(CCCl)CCCl)ccc21

>  <pchembl_value_mean>  (1187) 
8.05

>  <document_chembl_id>  (1187) 
CHEMBL3638914

$$$$

     RDKit          2D

 35 39  0  0  0  0  0  0  0  0999 V2000
   -9.1362  -11.6135    0.0000 O   0  0  0  0  0  0  0  0  0  0  0  0
   -8.1721  -10.4645    0.0000 C   0  0  0  0  0  0  0  0  0  0  0  0
   -8.6851   -9.0549    0.0000 N   0  0  0  0  0  0  0  0  0  0  0  0
  -10.1623   -8.7945    0.0000 O   0  0  0  0  0  0  0  0  0  0  0  0
   -6.6949  -10.7250    0.0000 C   0  0  0  0  0  0  0  0  0  0  0  0
   -5.7307   -9.5759    0.0000 C   0  0  0  0  0  0  0  0  0  0  0  0
   -4.2535   -9.8364    0.0000 N   0  0  0  0  0  0  0  0  0  0  0  0
   -3.7404  -11.2459    0.0000 C   0  0  0  0  0  0  0  0  0  0  0  0
   -2.2632  -11.5064    0.0000 N   0  0  0  0  0  0  0  0  0  0  0  0
   -1.2990  -10.3573    0.0000 C   0  0  0  0  0  0  0  0  0  0  0  0
   -0.3349  -11.5064    0.0000 C   0  0  0  0  0  0  0  0  0  0  0  0
   -0.8479  -12.9159    0.0000 C   0  0  0  0  0  0  0  0  0  0  0  0
    0.1163  -14.0650    0.0000 C   0  0  0  0  0  0  0  0  0  0  0  0
    1.5935  -13.8045    0.0000 C   0  0  0  0  0  0  0  0  0  0  0  0
    2.1065  -12.3950    0.0000 C   0  0  0  0  0  0  0  0  0  0  0  0
    1.1424  -11.2459    0.0000 C   0  0  0  0  0  0  0  0  0  0  0  0
   -0.0000   -9.6073    0.0000 C   0  0  0  0  0  0  0  0  0  0  0  0
   -0.0000   -8.1073    0.0000 C   0  0  0  0  0  0  0  0  0  0  0  0
   -1.2990   -7.3573    0.0000 N   0  0  0  0  0  0  0  0  0  0  0  0
   -1.2990   -5.8573    0.0000 C   0  0  0  0  0  0  0  0  0  0  0  0
   -2.5981   -5.1073    0.0000 O   0  0  0  0  0  0  0  0  0  0  0  0
   -0.0000   -5.1073    0.0000 C   0  0  0  0  0  0  0  0  0  0  0  0
   -0.0000   -3.6073    0.0000 C   0  0  0  0  0  0  0  0  0  0  0  0
    1.2135   -2.7256    0.0000 C   0  0  0  0  0  0  0  0  0  0  0  0
    0.7500   -1.2990    0.0000 C   0  0  0  0  0  0  0  0  0  0  0  0
    1.5000    0.0000    0.0000 C   0  0  0  0  0  0  0  0  0  0  0  0
    0.7500    1.2990    0.0000 C   0  0  0  0  0  0  0  0  0  0  0  0
   -0.7500    1.2990    0.0000 C   0  0  0  0  0  0  0  0  0  0  0  0
   -1.5000    0.0000    0.0000 C   0  0  0  0  0  0  0  0  0  0  0  0
   -0.7500   -1.2990    0.0000 C   0  0  0  0  0  0  0  0  0  0  0  0
   -1.2135   -2.7256    0.0000 N   0  0  0  0  0  0  0  0  0  0  0  0
   -2.5981   -8.1073    0.0000 C   0  0  0  0  0  0  0  0  0  0  0  0
   -2.5981   -9.6073    0.0000 C   0  0  0  0  0  0  0  0  0  0  0  0
   -4.7046  -12.3950    0.0000 N   0  0  0  0  0  0  0  0  0  0  0  0
   -6.1818  -12.1345    0.0000 C   0  0  0  0  0  0  0  0  0  0  0  0
  1  2  2  0
  2  3  1  0
  3  4  1  0
  2  5  1  0
  5  6  2  0
  6  7  1  0
  7  8  2  0
  8  9  1  0
  9 10  1  0
 10 11  1  0
 11 12  2  0
 12 13  1  0
 13 14  2  0
 14 15  1  0
 15 16  2  0
 10 17  1  0
 17 18  1  0
 18 19  1  0
 19 20  1  0
 20 21  2  0
 20 22  1  0
 22 23  1  0
 23 24  2  0
 24 25  1  0
 25 26  2  0
 26 27  1  0
 27 28  2  0
 28 29  1  0
 29 30  2  0
 30 31  1  0
 19 32  1  0
 32 33  1  0
  8 34  1  0
 34 35  2  0
 35  5  1  0
 33 10  1  0
 16 11  1  0
 31 23  1  0
 30 25  1  0
M  END
>  <molecule_chembl_id>  (1188) 
CHEMBL3935353

>  <canonical_smiles>  (1188) 
O=C(NO)c1cnc(NC2(c3ccccc3)CCN(C(=O)Cc3cc4ccccc4[nH]3)CC2)nc1

>  <pchembl_value_mean>  (1188) 
8.05

>  <document_chembl_id>  (1188) 
CHEMBL3886590

$$$$

     RDKit          2D

 29 32  0  0  0  0  0  0  0  0999 V2000
   -6.0000  -15.5885    0.0000 O   0  0  0  0  0  0  0  0  0  0  0  0
   -6.7500  -14.2894    0.0000 C   0  0  0  0  0  0  0  0  0  0  0  0
   -8.2500  -14.2894    0.0000 N   0  0  0  0  0  0  0  0  0  0  0  0
   -9.0000  -15.5885    0.0000 O   0  0  0  0  0  0  0  0  0  0  0  0
   -6.0000  -12.9904    0.0000 C   0  0  0  0  0  0  0  0  0  0  0  0
   -6.7500  -11.6913    0.0000 C   0  0  0  0  0  0  0  0  0  0  0  0
   -6.0000  -10.3923    0.0000 N   0  0  0  0  0  0  0  0  0  0  0  0
   -4.5000  -10.3923    0.0000 C   0  0  0  0  0  0  0  0  0  0  0  0
   -3.7500   -9.0933    0.0000 N   0  0  0  0  0  0  0  0  0  0  0  0
   -2.2500   -9.0933    0.0000 C   0  0  0  0  0  0  0  0  0  0  0  0
   -1.5000   -7.7942    0.0000 C   0  0  0  0  0  0  0  0  0  0  0  0
   -2.2500   -6.4952    0.0000 N   0  0  0  0  0  0  0  0  0  0  0  0
   -1.5000   -5.1962    0.0000 S   0  0  0  0  0  0  0  0  0  0  0  0
   -2.7990   -4.4462    0.0000 O   0  0  0  0  0  0  0  0  0  0  0  0
   -0.2010   -5.9462    0.0000 O   0  0  0  0  0  0  0  0  0  0  0  0
   -0.7500   -3.8971    0.0000 C   0  0  0  0  0  0  0  0  0  0  0  0
    0.7500   -3.8971    0.0000 C   0  0  0  0  0  0  0  0  0  0  0  0
    1.5000   -2.5981    0.0000 C   0  0  0  0  0  0  0  0  0  0  0  0
    0.7500   -1.2990    0.0000 C   0  0  0  0  0  0  0  0  0  0  0  0
    1.5000    0.0000    0.0000 C   0  0  0  0  0  0  0  0  0  0  0  0
    0.7500    1.2990    0.0000 C   0  0  0  0  0  0  0  0  0  0  0  0
   -0.7500    1.2990    0.0000 C   0  0  0  0  0  0  0  0  0  0  0  0
   -1.5000    0.0000    0.0000 C   0  0  0  0  0  0  0  0  0  0  0  0
   -0.7500   -1.2990    0.0000 C   0  0  0  0  0  0  0  0  0  0  0  0
   -1.5000   -2.5981    0.0000 C   0  0  0  0  0  0  0  0  0  0  0  0
   -3.7500   -6.4952    0.0000 C   0  0  0  0  0  0  0  0  0  0  0  0
   -4.5000   -7.7942    0.0000 C   0  0  0  0  0  0  0  0  0  0  0  0
   -3.7500  -11.6913    0.0000 N   0  0  0  0  0  0  0  0  0  0  0  0
   -4.5000  -12.9904    0.0000 C   0  0  0  0  0  0  0  0  0  0  0  0
  1  2  2  0
  2  3  1  0
  3  4  1  0
  2  5  1  0
  5  6  2  0
  6  7  1  0
  7  8  2  0
  8  9  1  0
  9 10  1  0
 10 11  1  0
 11 12  1  0
 12 13  1  0
 13 14  2  0
 13 15  2  0
 13 16  1  0
 16 17  2  0
 17 18  1  0
 18 19  2  0
 19 20  1  0
 20 21  2  0
 21 22  1  0
 22 23  2  0
 23 24  1  0
 24 25  2  0
 12 26  1  0
 26 27  1  0
  8 28  1  0
 28 29  2  0
 29  5  1  0
 27  9  1  0
 25 16  1  0
 24 19  1  0
M  END
>  <molecule_chembl_id>  (1189) 
CHEMBL609583

>  <canonical_smiles>  (1189) 
O=C(NO)c1cnc(N2CCN(S(=O)(=O)c3ccc4ccccc4c3)CC2)nc1

>  <pchembl_value_mean>  (1189) 
8.05

>  <document_chembl_id>  (1189) 
CHEMBL1153112

$$$$

     RDKit          2D

 28 30  0  0  0  0  0  0  0  0999 V2000
  -13.2499   -9.3683    0.0000 O   0  0  0  0  0  0  0  0  0  0  0  0
  -12.9381   -7.9010    0.0000 C   0  0  0  0  0  0  0  0  0  0  0  0
  -11.5115   -7.4375    0.0000 C   0  0  0  0  0  0  0  0  0  0  0  0
  -10.3968   -8.4412    0.0000 C   0  0  0  0  0  0  0  0  0  0  0  0
   -8.9702   -7.9777    0.0000 C   0  0  0  0  0  0  0  0  0  0  0  0
   -8.6583   -6.5105    0.0000 C   0  0  0  0  0  0  0  0  0  0  0  0
   -7.2317   -6.0469    0.0000 C   0  0  0  0  0  0  0  0  0  0  0  0
   -6.1170   -7.0506    0.0000 C   0  0  0  0  0  0  0  0  0  0  0  0
   -4.6904   -6.5871    0.0000 C   0  0  0  0  0  0  0  0  0  0  0  0
   -4.3786   -5.1199    0.0000 N   0  0  0  0  0  0  0  0  0  0  0  0
   -5.4933   -4.1162    0.0000 C   0  0  0  0  0  0  0  0  0  0  0  0
   -6.9199   -4.5797    0.0000 C   0  0  0  0  0  0  0  0  0  0  0  0
   -8.0346   -3.5760    0.0000 O   0  0  0  0  0  0  0  0  0  0  0  0
   -2.9520   -4.6564    0.0000 C   0  0  0  0  0  0  0  0  0  0  0  0
   -2.6401   -3.1891    0.0000 C   0  0  0  0  0  0  0  0  0  0  0  0
   -1.2135   -2.7256    0.0000 C   0  0  0  0  0  0  0  0  0  0  0  0
   -0.0000   -3.6073    0.0000 C   0  0  0  0  0  0  0  0  0  0  0  0
    1.2135   -2.7256    0.0000 N   0  0  0  0  0  0  0  0  0  0  0  0
    0.7500   -1.2990    0.0000 C   0  0  0  0  0  0  0  0  0  0  0  0
    1.5000    0.0000    0.0000 C   0  0  0  0  0  0  0  0  0  0  0  0
    0.7500    1.2990    0.0000 C   0  0  0  0  0  0  0  0  0  0  0  0
   -0.7500    1.2990    0.0000 C   0  0  0  0  0  0  0  0  0  0  0  0
   -1.5000    0.0000    0.0000 C   0  0  0  0  0  0  0  0  0  0  0  0
   -0.7500   -1.2990    0.0000 C   0  0  0  0  0  0  0  0  0  0  0  0
   -6.4289   -8.5179    0.0000 C   0  0  0  0  0  0  0  0  0  0  0  0
   -7.8555   -8.9814    0.0000 C   0  0  0  0  0  0  0  0  0  0  0  0
  -14.0528   -6.8974    0.0000 N   0  0  0  0  0  0  0  0  0  0  0  0
  -15.4794   -7.3609    0.0000 O   0  0  0  0  0  0  0  0  0  0  0  0
  1  2  2  0
  2  3  1  0
  3  4  2  3
  4  5  1  0
  5  6  2  0
  6  7  1  0
  7  8  2  0
  8  9  1  0
  9 10  1  0
 10 11  1  0
 11 12  1  0
 12 13  1  0
 10 14  1  0
 14 15  1  0
 15 16  1  0
 16 17  2  0
 17 18  1  0
 18 19  1  0
 19 20  2  0
 20 21  1  0
 21 22  2  0
 22 23  1  0
 23 24  2  0
  8 25  1  0
 25 26  2  0
  2 27  1  0
 27 28  1  0
 26  5  1  0
 24 16  1  0
 24 19  1  0
M  END
>  <molecule_chembl_id>  (1190) 
CHEMBL356066

>  <canonical_smiles>  (1190) 
O=C(C=Cc1ccc(CN(CCO)CCc2c[nH]c3ccccc23)cc1)NO

>  <pchembl_value_mean>  (1190) 
8.0625

>  <document_chembl_id>  (1190) 
CHEMBL1138236

$$$$

     RDKit          2D

 26 28  0  0  0  0  0  0  0  0999 V2000
    5.8875   -3.9505    0.0000 N   0  0  0  0  0  0  0  0  0  0  0  0
    4.6740   -4.8322    0.0000 C   0  0  0  0  0  0  0  0  0  0  0  0
    4.8308   -6.3240    0.0000 C   0  0  0  0  0  0  0  0  0  0  0  0
    6.2011   -6.9341    0.0000 C   0  0  0  0  0  0  0  0  0  0  0  0
    6.3579   -8.4259    0.0000 C   0  0  0  0  0  0  0  0  0  0  0  0
    7.7282   -9.0360    0.0000 C   0  0  0  0  0  0  0  0  0  0  0  0
    7.8850  -10.5278    0.0000 C   0  0  0  0  0  0  0  0  0  0  0  0
    9.2553  -11.1379    0.0000 C   0  0  0  0  0  0  0  0  0  0  0  0
   10.4688  -10.2562    0.0000 O   0  0  0  0  0  0  0  0  0  0  0  0
    9.4121  -12.6296    0.0000 C   0  0  0  0  0  0  0  0  0  0  0  0
   10.7111  -13.3796    0.0000 C   0  0  0  0  0  0  0  0  0  0  0  0
   10.3993  -14.8469    0.0000 C   0  0  0  0  0  0  0  0  0  0  0  0
    8.9075  -15.0037    0.0000 O   0  0  0  0  0  0  0  0  0  0  0  0
    8.2974  -13.6333    0.0000 N   0  0  0  0  0  0  0  0  0  0  0  0
    3.3037   -4.2221    0.0000 C   0  0  0  0  0  0  0  0  0  0  0  0
    2.0046   -4.9721    0.0000 N   0  0  0  0  0  0  0  0  0  0  0  0
    0.8899   -3.9684    0.0000 C   0  0  0  0  0  0  0  0  0  0  0  0
    1.5000   -2.5981    0.0000 C   0  0  0  0  0  0  0  0  0  0  0  0
    0.7500   -1.2990    0.0000 C   0  0  0  0  0  0  0  0  0  0  0  0
    1.5000    0.0000    0.0000 C   0  0  0  0  0  0  0  0  0  0  0  0
    0.7500    1.2990    0.0000 C   0  0  0  0  0  0  0  0  0  0  0  0
   -0.7500    1.2990    0.0000 C   0  0  0  0  0  0  0  0  0  0  0  0
   -1.5000    0.0000    0.0000 C   0  0  0  0  0  0  0  0  0  0  0  0
   -0.7500   -1.2990    0.0000 C   0  0  0  0  0  0  0  0  0  0  0  0
   -1.5000   -2.5981    0.0000 F   0  0  0  0  0  0  0  0  0  0  0  0
    2.9918   -2.7549    0.0000 N   0  0  0  0  0  0  0  0  0  0  0  0
  1  2  1  0
  2  3  1  0
  3  4  1  0
  4  5  1  0
  5  6  1  0
  6  7  1  0
  7  8  1  0
  8  9  2  0
  8 10  1  0
 10 11  1  0
 11 12  2  0
 12 13  1  0
 13 14  1  0
  2 15  1  0
 15 16  2  0
 16 17  1  0
 17 18  2  0
 18 19  1  0
 19 20  2  0
 20 21  1  0
 21 22  2  0
 22 23  1  0
 23 24  2  0
 24 25  1  0
 18 26  1  0
 14 10  2  0
 26 15  1  0
 24 19  1  0
M  END
>  <molecule_chembl_id>  (1191) 
CHEMBL4644307

>  <canonical_smiles>  (1191) 
NC(CCCCCC(=O)c1ccon1)c1ncc(-c2ccccc2F)[nH]1

>  <pchembl_value_mean>  (1191) 
8.07

>  <document_chembl_id>  (1191) 
CHEMBL4622967

$$$$

     RDKit          2D

 44 49  0  0  0  0  0  0  0  0999 V2000
    5.7892  -13.5629    0.0000 C   0  0  0  0  0  0  0  0  0  0  0  0
    6.7024  -12.3729    0.0000 C   0  0  0  0  0  0  0  0  0  0  0  0
    6.1284  -10.9871    0.0000 C   0  0  0  0  0  0  0  0  0  0  0  0
    4.6412  -10.7913    0.0000 O   0  0  0  0  0  0  0  0  0  0  0  0
    7.0415   -9.7971    0.0000 C   0  0  0  0  0  0  0  0  0  0  0  0
    6.4675   -8.4112    0.0000 C   0  0  0  0  0  0  0  0  0  0  0  0
    7.3806   -7.2212    0.0000 C   0  0  0  0  0  0  0  0  0  0  0  0
    6.8066   -5.8354    0.0000 C   0  0  0  0  0  0  0  0  0  0  0  0
    7.7197   -4.6454    0.0000 C   0  0  0  0  0  0  0  0  0  0  0  0
    7.1457   -3.2595    0.0000 C   0  0  0  0  0  0  0  0  0  0  0  0
    5.6968   -3.6478    0.0000 N   0  0  0  0  0  0  0  0  0  0  0  0
    4.1968   -3.6478    0.0000 C   0  0  0  0  0  0  0  0  0  0  0  0
    4.0010   -5.1349    0.0000 O   0  0  0  0  0  0  0  0  0  0  0  0
    2.7479   -3.2595    0.0000 C   0  0  0  0  0  0  0  0  0  0  0  0
    1.3028   -3.6615    0.0000 C   0  0  0  0  0  0  0  0  0  0  0  0
    0.7500   -1.2990    0.0000 C   0  0  0  0  0  0  0  0  0  0  0  0
    1.5000    0.0000    0.0000 C   0  0  0  0  0  0  0  0  0  0  0  0
    0.7500    1.2990    0.0000 C   0  0  0  0  0  0  0  0  0  0  0  0
   -0.7500    1.2990    0.0000 N   0  0  0  0  0  0  0  0  0  0  0  0
   -0.7500    2.7990    0.0000 C   0  0  0  0  0  0  0  0  0  0  0  0
   -0.3618    4.2479    0.0000 C   0  0  0  0  0  0  0  0  0  0  0  0
    0.3882    5.5470    0.0000 C   0  0  0  0  0  0  0  0  0  0  0  0
    1.4489    6.6076    0.0000 O   0  0  0  0  0  0  0  0  0  0  0  0
    2.7479    7.3576    0.0000 C   0  0  0  0  0  0  0  0  0  0  0  0
    4.1968    7.7459    0.0000 C   0  0  0  0  0  0  0  0  0  0  0  0
    5.6968    7.7459    0.0000 C   0  0  0  0  0  0  0  0  0  0  0  0
    7.1457    7.3576    0.0000 N   0  0  0  0  0  0  0  0  0  0  0  0
    8.4447    6.6076    0.0000 C   0  0  0  0  0  0  0  0  0  0  0  0
    9.5054    5.5470    0.0000 C   0  0  0  0  0  0  0  0  0  0  0  0
   10.2554    4.2479    0.0000 C   0  0  0  0  0  0  0  0  0  0  0  0
   10.6436    2.7990    0.0000 C   0  0  0  0  0  0  0  0  0  0  0  0
   10.6436    1.2990    0.0000 C   0  0  0  0  0  0  0  0  0  0  0  0
    9.6891    2.4561    0.0000 C   0  0  0  0  0  0  0  0  0  0  0  0
    9.0666    3.8209    0.0000 C   0  0  0  0  0  0  0  0  0  0  0  0
    8.9564    4.9979    0.0000 C   0  0  0  0  0  0  0  0  0  0  0  0
    7.8957    6.0586    0.0000 C   0  0  0  0  0  0  0  0  0  0  0  0
    6.7057    5.1454    0.0000 O   0  0  0  0  0  0  0  0  0  0  0  0
   10.2554   -0.1499    0.0000 C   0  0  0  0  0  0  0  0  0  0  0  0
   11.1050   -1.3860    0.0000 C   0  0  0  0  0  0  0  0  0  0  0  0
   10.1919   -2.5761    0.0000 N   0  0  0  0  0  0  0  0  0  0  0  0
    8.4447   -2.5095    0.0000 C   0  0  0  0  0  0  0  0  0  0  0  0
    9.5054   -1.4489    0.0000 N   0  0  0  0  0  0  0  0  0  0  0  0
   -1.5000    0.0000    0.0000 C   0  0  0  0  0  0  0  0  0  0  0  0
   -0.7500   -1.2990    0.0000 C   0  0  0  0  0  0  0  0  0  0  0  0
  1  2  1  0
  2  3  1  0
  3  4  2  0
  3  5  1  0
  5  6  1  0
  6  7  1  0
  7  8  1  0
  8  9  1  0
  9 10  1  0
 10 11  1  0
 11 12  1  0
 12 13  2  0
 12 14  1  0
 14 15  1  0
 15 16  1  0
 16 17  1  0
 17 18  1  0
 18 19  1  0
 19 20  1  0
 20 21  1  0
 21 22  1  0
 22 23  1  0
 23 24  1  0
 24 25  1  0
 25 26  1  0
 26 27  1  0
 27 28  1  0
 28 29  2  0
 29 30  1  0
 30 31  1  0
 31 32  2  0
 32 33  1  0
 33 34  2  0
 34 35  1  0
 35 36  1  0
 36 37  2  0
 32 38  1  0
 38 39  2  0
 39 40  1  0
 40 41  2  0
 41 42  1  0
 19 43  1  0
 43 44  1  0
 41 10  1  0
 16 14  1  0
 36 27  1  0
 42 38  1  0
 44 16  1  0
 35 30  2  0
M  END
>  <molecule_chembl_id>  (1192) 
CHEMBL4869000

>  <canonical_smiles>  (1192) 
CCC(=O)CCCCCC1NC(=O)C2CC23CCN(CCCOCCCn2ccc4cc(ccc4c2=O)-c2cnc1[nH]2)CC3

>  <pchembl_value_mean>  (1192) 
8.07

>  <document_chembl_id>  (1192) 
CHEMBL4811291

$$$$

     RDKit          2D

 32 33  0  0  0  0  0  0  0  0999 V2000
    3.0000  -12.9904    0.0000 O   0  0  0  0  0  0  0  0  0  0  0  0
    1.5000  -12.9904    0.0000 C   0  0  0  0  0  0  0  0  0  0  0  0
    0.7500  -11.6913    0.0000 C   0  0  0  0  0  0  0  0  0  0  0  0
    1.5000  -10.3923    0.0000 C   0  0  0  0  0  0  0  0  0  0  0  0
    0.7500   -9.0933    0.0000 C   0  0  0  0  0  0  0  0  0  0  0  0
    1.5000   -7.7942    0.0000 C   0  0  0  0  0  0  0  0  0  0  0  0
    0.7500   -6.4952    0.0000 C   0  0  0  0  0  0  0  0  0  0  0  0
    1.5000   -5.1962    0.0000 C   0  0  0  0  0  0  0  0  0  0  0  0
    3.0000   -5.1962    0.0000 N   0  0  0  0  0  0  0  0  0  0  0  0
    3.7500   -6.4952    0.0000 C   0  0  0  0  0  0  0  0  0  0  0  0
    3.0000   -7.7942    0.0000 O   0  0  0  0  0  0  0  0  0  0  0  0
    5.2500   -6.4952    0.0000 C   0  0  0  0  0  0  0  0  0  0  0  0
    6.1317   -5.2817    0.0000 C   0  0  0  0  0  0  0  0  0  0  0  0
    7.5583   -5.7452    0.0000 C   0  0  0  0  0  0  0  0  0  0  0  0
    7.5583   -7.2452    0.0000 C   0  0  0  0  0  0  0  0  0  0  0  0
    8.7718   -8.1269    0.0000 O   0  0  0  0  0  0  0  0  0  0  0  0
    6.1317   -7.7087    0.0000 N   0  0  0  0  0  0  0  0  0  0  0  0
    0.7500   -3.8971    0.0000 C   0  0  0  0  0  0  0  0  0  0  0  0
   -0.7500   -3.8971    0.0000 O   0  0  0  0  0  0  0  0  0  0  0  0
    1.5000   -2.5981    0.0000 N   0  0  0  0  0  0  0  0  0  0  0  0
    0.7500   -1.2990    0.0000 C   0  0  0  0  0  0  0  0  0  0  0  0
    1.5000    0.0000    0.0000 C   0  0  0  0  0  0  0  0  0  0  0  0
    0.7500    1.2990    0.0000 C   0  0  0  0  0  0  0  0  0  0  0  0
   -0.7500    1.2990    0.0000 C   0  0  0  0  0  0  0  0  0  0  0  0
   -1.5000    0.0000    0.0000 C   0  0  0  0  0  0  0  0  0  0  0  0
   -3.0000    0.0000    0.0000 C   0  0  0  0  0  0  0  0  0  0  0  0
   -4.5000    0.0000    0.0000 F   0  0  0  0  0  0  0  0  0  0  0  0
   -3.0000    1.5000    0.0000 F   0  0  0  0  0  0  0  0  0  0  0  0
   -3.0000   -1.5000    0.0000 F   0  0  0  0  0  0  0  0  0  0  0  0
   -0.7500   -1.2990    0.0000 C   0  0  0  0  0  0  0  0  0  0  0  0
    0.7500  -14.2894    0.0000 N   0  0  0  0  0  0  0  0  0  0  0  0
    1.5000  -15.5885    0.0000 O   0  0  0  0  0  0  0  0  0  0  0  0
  1  2  2  0
  2  3  1  0
  3  4  1  0
  4  5  1  0
  5  6  1  0
  6  7  1  0
  7  8  1  0
  8  9  1  0
  9 10  1  0
 10 11  2  0
 10 12  1  0
 12 13  1  0
 13 14  1  0
 14 15  1  0
 15 16  2  0
 15 17  1  0
  8 18  1  0
 18 19  2  0
 18 20  1  0
 20 21  1  0
 21 22  2  0
 22 23  1  0
 23 24  2  0
 24 25  1  0
 25 26  1  0
 26 27  1  0
 26 28  1  0
 26 29  1  0
 25 30  2  0
  2 31  1  0
 31 32  1  0
 17 12  1  0
 30 21  1  0
M  END
>  <molecule_chembl_id>  (1193) 
CHEMBL3098602

>  <canonical_smiles>  (1193) 
O=C(CCCCCC(NC(=O)C1CCC(=O)N1)C(=O)Nc1cccc(C(F)(F)F)c1)NO

>  <pchembl_value_mean>  (1193) 
8.1

>  <document_chembl_id>  (1193) 
CHEMBL3098008

$$$$

     RDKit          2D

 29 32  0  0  0  0  0  0  0  0999 V2000
  -10.0644   -1.4013    0.0000 O   0  0  0  0  0  0  0  0  0  0  0  0
   -8.6549   -0.8883    0.0000 C   0  0  0  0  0  0  0  0  0  0  0  0
   -8.3944    0.5889    0.0000 N   0  0  0  0  0  0  0  0  0  0  0  0
   -9.5435    1.5531    0.0000 O   0  0  0  0  0  0  0  0  0  0  0  0
   -7.5058   -1.8525    0.0000 C   0  0  0  0  0  0  0  0  0  0  0  0
   -6.0963   -1.3394    0.0000 C   0  0  0  0  0  0  0  0  0  0  0  0
   -4.9472   -2.3036    0.0000 C   0  0  0  0  0  0  0  0  0  0  0  0
   -5.2077   -3.7808    0.0000 C   0  0  0  0  0  0  0  0  0  0  0  0
   -4.0586   -4.7450    0.0000 N   0  0  0  0  0  0  0  0  0  0  0  0
   -2.6491   -4.2320    0.0000 C   0  0  0  0  0  0  0  0  0  0  0  0
   -2.3886   -2.7548    0.0000 O   0  0  0  0  0  0  0  0  0  0  0  0
   -1.5000   -5.1962    0.0000 C   0  0  0  0  0  0  0  0  0  0  0  0
   -0.7500   -3.8971    0.0000 C   0  0  0  0  0  0  0  0  0  0  0  0
    0.7500   -3.8971    0.0000 C   0  0  0  0  0  0  0  0  0  0  0  0
    1.5000   -2.5981    0.0000 C   0  0  0  0  0  0  0  0  0  0  0  0
    0.7500   -1.2990    0.0000 C   0  0  0  0  0  0  0  0  0  0  0  0
    1.5000    0.0000    0.0000 C   0  0  0  0  0  0  0  0  0  0  0  0
    0.7500    1.2990    0.0000 C   0  0  0  0  0  0  0  0  0  0  0  0
   -0.7500    1.2990    0.0000 C   0  0  0  0  0  0  0  0  0  0  0  0
   -1.5000    0.0000    0.0000 C   0  0  0  0  0  0  0  0  0  0  0  0
   -0.7500   -1.2990    0.0000 C   0  0  0  0  0  0  0  0  0  0  0  0
   -1.5000   -2.5981    0.0000 C   0  0  0  0  0  0  0  0  0  0  0  0
   -0.0905   -5.7092    0.0000 C   0  0  0  0  0  0  0  0  0  0  0  0
    0.1700   -7.1864    0.0000 C   0  0  0  0  0  0  0  0  0  0  0  0
   -0.9791   -8.1506    0.0000 O   0  0  0  0  0  0  0  0  0  0  0  0
   -2.3886   -7.6375    0.0000 C   0  0  0  0  0  0  0  0  0  0  0  0
   -2.6491   -6.1603    0.0000 C   0  0  0  0  0  0  0  0  0  0  0  0
   -6.6172   -4.2939    0.0000 C   0  0  0  0  0  0  0  0  0  0  0  0
   -7.7663   -3.3297    0.0000 C   0  0  0  0  0  0  0  0  0  0  0  0
  1  2  2  0
  2  3  1  0
  3  4  1  0
  2  5  1  0
  5  6  2  0
  6  7  1  0
  7  8  2  0
  8  9  1  0
  9 10  1  0
 10 11  2  0
 10 12  1  0
 12 13  1  0
 13 14  2  0
 14 15  1  0
 15 16  2  0
 16 17  1  0
 17 18  2  0
 18 19  1  0
 19 20  2  0
 20 21  1  0
 21 22  2  0
 12 23  1  0
 23 24  1  0
 24 25  1  0
 25 26  1  0
 26 27  1  0
  8 28  1  0
 28 29  2  0
 29  5  1  0
 27 12  1  0
 22 13  1  0
 21 16  1  0
M  END
>  <molecule_chembl_id>  (1194) 
CHEMBL4642874

>  <canonical_smiles>  (1194) 
O=C(NO)c1ccc(NC(=O)C2(c3ccc4ccccc4c3)CCOCC2)cc1

>  <pchembl_value_mean>  (1194) 
8.1

>  <document_chembl_id>  (1194) 
CHEMBL4602725

$$$$

     RDKit          2D

 42 43  0  0  0  0  0  0  0  0999 V2000
    1.5922    6.6948    0.0000 C   0  0  0  0  0  0  0  0  0  0  0  0
    0.1004    6.8516    0.0000 C   0  0  0  0  0  0  0  0  0  0  0  0
   -0.7813    5.6380    0.0000 C   0  0  0  0  0  0  0  0  0  0  0  0
    0.2369    4.5365    0.0000 N   0  0  0  0  0  0  0  0  0  0  0  0
    0.7561    3.1293    0.0000 C   0  0  0  0  0  0  0  0  0  0  0  0
    2.2376    3.3639    0.0000 O   0  0  0  0  0  0  0  0  0  0  0  0
    0.3943    1.2135    0.0000 C   0  0  0  0  0  0  0  0  0  0  0  0
    1.2760    0.0000    0.0000 C   0  0  0  0  0  0  0  0  0  0  0  0
    0.3943   -1.2135    0.0000 S   0  0  0  0  0  0  0  0  0  0  0  0
   -1.0323   -0.7500    0.0000 C   0  0  0  0  0  0  0  0  0  0  0  0
   -1.0323    0.7500    0.0000 N   0  0  0  0  0  0  0  0  0  0  0  0
   -2.4396   -1.2692    0.0000 C   0  0  0  0  0  0  0  0  0  0  0  0
   -3.9384   -1.2103    0.0000 N   0  0  0  0  0  0  0  0  0  0  0  0
   -5.3006   -0.5823    0.0000 C   0  0  0  0  0  0  0  0  0  0  0  0
   -6.1823   -1.7958    0.0000 O   0  0  0  0  0  0  0  0  0  0  0  0
   -6.3188    0.5192    0.0000 C   0  0  0  0  0  0  0  0  0  0  0  0
   -6.8380    1.9265    0.0000 C   0  0  0  0  0  0  0  0  0  0  0  0
   -8.3195    1.6918    0.0000 C   0  0  0  0  0  0  0  0  0  0  0  0
   -9.2635    2.8575    0.0000 C   0  0  0  0  0  0  0  0  0  0  0  0
  -10.7451    2.6229    0.0000 C   0  0  0  0  0  0  0  0  0  0  0  0
  -11.6890    3.7886    0.0000 C   0  0  0  0  0  0  0  0  0  0  0  0
  -13.1706    3.5540    0.0000 S   0  0  0  0  0  0  0  0  0  0  0  0
  -14.1145    4.7197    0.0000 S   0  0  0  0  0  0  0  0  0  0  0  0
  -15.5961    4.4850    0.0000 C   0  0  0  0  0  0  0  0  0  0  0  0
  -16.5401    5.6507    0.0000 C   0  0  0  0  0  0  0  0  0  0  0  0
  -18.0216    5.4161    0.0000 C   0  0  0  0  0  0  0  0  0  0  0  0
  -18.9656    6.5818    0.0000 C   0  0  0  0  0  0  0  0  0  0  0  0
  -20.4471    6.3472    0.0000 C   0  0  0  0  0  0  0  0  0  0  0  0
  -21.3911    7.5129    0.0000 C   0  0  0  0  0  0  0  0  0  0  0  0
  -22.8726    7.2782    0.0000 C   0  0  0  0  0  0  0  0  0  0  0  0
   -6.7791    3.4253    0.0000 O   0  0  0  0  0  0  0  0  0  0  0  0
   -6.1511    4.7875    0.0000 C   0  0  0  0  0  0  0  0  0  0  0  0
   -7.3647    5.6692    0.0000 O   0  0  0  0  0  0  0  0  0  0  0  0
   -5.0496    5.8057    0.0000 C   0  0  0  0  0  0  0  0  0  0  0  0
   -5.8334    7.0847    0.0000 C   0  0  0  0  0  0  0  0  0  0  0  0
   -5.1177    8.4029    0.0000 C   0  0  0  0  0  0  0  0  0  0  0  0
   -5.9014    9.6819    0.0000 C   0  0  0  0  0  0  0  0  0  0  0  0
   -5.1857   11.0001    0.0000 C   0  0  0  0  0  0  0  0  0  0  0  0
   -5.9694   12.2791    0.0000 N   0  0  0  0  0  0  0  0  0  0  0  0
   -3.6424    6.3249    0.0000 N   0  0  0  0  0  0  0  0  0  0  0  0
   -2.1435    6.2660    0.0000 C   0  0  0  0  0  0  0  0  0  0  0  0
   -1.7933    7.7246    0.0000 O   0  0  0  0  0  0  0  0  0  0  0  0
  1  2  1  0
  2  3  2  3
  3  4  1  0
  4  5  1  0
  5  6  2  0
  5  7  1  0
  7  8  2  0
  8  9  1  0
  9 10  1  0
 10 11  2  0
 10 12  1  0
 12 13  1  0
 13 14  1  0
 14 15  2  0
 14 16  1  0
 16 17  1  0
 17 18  1  0
 18 19  2  3
 19 20  1  0
 20 21  1  0
 21 22  1  0
 22 23  1  0
 23 24  1  0
 24 25  1  0
 25 26  1  0
 26 27  1  0
 27 28  1  0
 28 29  1  0
 29 30  1  0
 17 31  1  0
 31 32  1  0
 32 33  2  0
 32 34  1  0
 34 35  1  0
 35 36  1  0
 36 37  1  0
 37 38  1  0
 38 39  1  0
 34 40  1  0
 40 41  1  0
 41 42  2  0
 41  3  1  0
 11  7  1  0
M  END
>  <molecule_chembl_id>  (1195) 
CHEMBL5086750

>  <canonical_smiles>  (1195) 
CC=C1NC(=O)c2csc(n2)CNC(=O)CC(C=CCCSSCCCCCCC)OC(=O)C(CCCCN)NC1=O

>  <pchembl_value_mean>  (1195) 
8.12

>  <document_chembl_id>  (1195) 
CHEMBL5030507

$$$$

     RDKit          2D

 33 35  0  0  0  0  0  0  0  0999 V2000
    1.5922    6.6948    0.0000 C   0  0  0  0  0  0  0  0  0  0  0  0
    0.1004    6.8516    0.0000 C   0  0  0  0  0  0  0  0  0  0  0  0
   -0.5097    8.2219    0.0000 C   0  0  0  0  0  0  0  0  0  0  0  0
   -0.7813    5.6380    0.0000 C   0  0  0  0  0  0  0  0  0  0  0  0
    0.2369    4.5365    0.0000 N   0  0  0  0  0  0  0  0  0  0  0  0
    0.7561    3.1293    0.0000 C   0  0  0  0  0  0  0  0  0  0  0  0
    2.2376    3.3639    0.0000 O   0  0  0  0  0  0  0  0  0  0  0  0
    0.3943    1.2135    0.0000 C   0  0  0  0  0  0  0  0  0  0  0  0
    0.4790    2.4256    0.0000 C   0  0  0  0  0  0  0  0  0  0  0  0
    1.2760    0.0000    0.0000 C   0  0  0  0  0  0  0  0  0  0  0  0
    0.3943   -1.2135    0.0000 S   0  0  0  0  0  0  0  0  0  0  0  0
   -1.0323   -0.7500    0.0000 C   0  0  0  0  0  0  0  0  0  0  0  0
   -1.0323    0.7500    0.0000 N   0  0  0  0  0  0  0  0  0  0  0  0
   -2.4396   -1.2692    0.0000 C   0  0  0  0  0  0  0  0  0  0  0  0
   -3.2233   -2.5481    0.0000 C   0  0  0  0  0  0  0  0  0  0  0  0
   -4.6819   -2.1980    0.0000 S   0  0  0  0  0  0  0  0  0  0  0  0
   -5.3006   -0.5823    0.0000 C   0  0  0  0  0  0  0  0  0  0  0  0
   -3.9384   -1.2103    0.0000 N   0  0  0  0  0  0  0  0  0  0  0  0
   -6.3188    0.5192    0.0000 C   0  0  0  0  0  0  0  0  0  0  0  0
   -6.8380    1.9265    0.0000 N   0  0  0  0  0  0  0  0  0  0  0  0
   -6.7791    3.4253    0.0000 C   0  0  0  0  0  0  0  0  0  0  0  0
   -8.2377    3.7755    0.0000 O   0  0  0  0  0  0  0  0  0  0  0  0
   -6.1511    4.7875    0.0000 C   0  0  0  0  0  0  0  0  0  0  0  0
   -5.0496    5.8057    0.0000 C   0  0  0  0  0  0  0  0  0  0  0  0
   -5.8334    7.0847    0.0000 C   0  0  0  0  0  0  0  0  0  0  0  0
   -7.3329    7.0454    0.0000 F   0  0  0  0  0  0  0  0  0  0  0  0
   -5.1177    8.4029    0.0000 C   0  0  0  0  0  0  0  0  0  0  0  0
   -5.9014    9.6819    0.0000 C   0  0  0  0  0  0  0  0  0  0  0  0
   -5.1857   11.0001    0.0000 C   0  0  0  0  0  0  0  0  0  0  0  0
   -5.9694   12.2791    0.0000 S   0  0  0  0  0  0  0  0  0  0  0  0
   -3.6424    6.3249    0.0000 N   0  0  0  0  0  0  0  0  0  0  0  0
   -2.1435    6.2660    0.0000 C   0  0  0  0  0  0  0  0  0  0  0  0
   -1.7933    7.7246    0.0000 O   0  0  0  0  0  0  0  0  0  0  0  0
  1  2  1  0
  2  3  1  0
  2  4  1  0
  4  5  1  0
  5  6  1  0
  6  7  2  0
  6  8  1  0
  8  9  1  0
  8 10  1  0
 10 11  1  0
 11 12  1  0
 12 13  2  0
 12 14  1  0
 14 15  2  0
 15 16  1  0
 16 17  1  0
 17 18  2  0
 17 19  1  0
 19 20  1  0
 20 21  1  0
 21 22  2  0
 21 23  1  0
 23 24  1  0
 24 25  1  0
 25 26  1  0
 25 27  2  3
 27 28  1  0
 28 29  1  0
 29 30  1  0
 24 31  1  0
 31 32  1  0
 32 33  2  0
 32  4  1  0
 13  8  1  0
 18 14  1  0
M  END
>  <molecule_chembl_id>  (1196) 
CHEMBL4446027

>  <canonical_smiles>  (1196) 
CC(C)C1NC(=O)C2(C)CSC(=N2)c2csc(n2)CNC(=O)CC(C(F)=CCCS)NC1=O

>  <pchembl_value_mean>  (1196) 
8.13

>  <document_chembl_id>  (1196) 
CHEMBL4359920

$$$$

     RDKit          2D

 26 27  0  0  0  0  0  0  0  0999 V2000
   12.0000   -7.7942    0.0000 O   0  0  0  0  0  0  0  0  0  0  0  0
   12.7500   -6.4952    0.0000 C   0  0  0  0  0  0  0  0  0  0  0  0
   12.0000   -5.1962    0.0000 C   0  0  0  0  0  0  0  0  0  0  0  0
   10.5000   -5.1962    0.0000 C   0  0  0  0  0  0  0  0  0  0  0  0
    9.7500   -3.8971    0.0000 C   0  0  0  0  0  0  0  0  0  0  0  0
    8.2500   -3.8971    0.0000 C   0  0  0  0  0  0  0  0  0  0  0  0
    7.5000   -2.5981    0.0000 C   0  0  0  0  0  0  0  0  0  0  0  0
    6.0000   -2.5981    0.0000 C   0  0  0  0  0  0  0  0  0  0  0  0
    5.2500   -3.8971    0.0000 O   0  0  0  0  0  0  0  0  0  0  0  0
    5.2500   -1.2990    0.0000 N   0  0  0  0  0  0  0  0  0  0  0  0
    3.7500   -1.2990    0.0000 N   0  0  0  0  0  0  0  0  0  0  0  0
    3.0000    0.0000    0.0000 C   0  0  0  0  0  0  0  0  0  0  0  0
    1.5000    0.0000    0.0000 C   0  0  0  0  0  0  0  0  0  0  0  0
    0.7500   -1.2990    0.0000 C   0  0  0  0  0  0  0  0  0  0  0  0
   -0.7500   -1.2990    0.0000 C   0  0  0  0  0  0  0  0  0  0  0  0
   -1.5000    0.0000    0.0000 C   0  0  0  0  0  0  0  0  0  0  0  0
   -3.0000    0.0000    0.0000 C   0  0  0  0  0  0  0  0  0  0  0  0
   -3.7500    1.2990    0.0000 C   0  0  0  0  0  0  0  0  0  0  0  0
   -5.2500    1.2990    0.0000 C   0  0  0  0  0  0  0  0  0  0  0  0
   -6.0000    0.0000    0.0000 C   0  0  0  0  0  0  0  0  0  0  0  0
   -5.2500   -1.2990    0.0000 C   0  0  0  0  0  0  0  0  0  0  0  0
   -3.7500   -1.2990    0.0000 N   0  0  0  0  0  0  0  0  0  0  0  0
   -0.7500    1.2990    0.0000 C   0  0  0  0  0  0  0  0  0  0  0  0
    0.7500    1.2990    0.0000 C   0  0  0  0  0  0  0  0  0  0  0  0
   14.2500   -6.4952    0.0000 N   0  0  0  0  0  0  0  0  0  0  0  0
   15.0000   -7.7942    0.0000 O   0  0  0  0  0  0  0  0  0  0  0  0
  1  2  2  0
  2  3  1  0
  3  4  1  0
  4  5  1  0
  5  6  1  0
  6  7  1  0
  7  8  1  0
  8  9  2  0
  8 10  1  0
 10 11  1  0
 11 12  2  3
 12 13  1  0
 13 14  2  0
 14 15  1  0
 15 16  2  0
 16 17  1  0
 17 18  2  0
 18 19  1  0
 19 20  2  0
 20 21  1  0
 21 22  2  0
 16 23  1  0
 23 24  2  0
  2 25  1  0
 25 26  1  0
 24 13  1  0
 22 17  1  0
M  END
>  <molecule_chembl_id>  (1197) 
CHEMBL3758870

>  <canonical_smiles>  (1197) 
O=C(CCCCCC(=O)NN=Cc1ccc(-c2ccccn2)cc1)NO

>  <pchembl_value_mean>  (1197) 
8.16

>  <document_chembl_id>  (1197) 
CHEMBL3758132

$$$$

     RDKit          2D

 32 33  0  0  0  0  0  0  0  0999 V2000
    7.2760    2.5981    0.0000 C   0  0  0  0  0  0  0  0  0  0  0  0
    5.7760    2.5981    0.0000 C   0  0  0  0  0  0  0  0  0  0  0  0
    5.0260    3.8971    0.0000 C   0  0  0  0  0  0  0  0  0  0  0  0
    5.0260    1.2990    0.0000 C   0  0  0  0  0  0  0  0  0  0  0  0
    3.5260    1.2990    0.0000 C   0  0  0  0  0  0  0  0  0  0  0  0
    2.7760    0.0000    0.0000 N   0  0  0  0  0  0  0  0  0  0  0  0
    3.5260   -1.2990    0.0000 C   0  0  0  0  0  0  0  0  0  0  0  0
    5.0260   -1.2990    0.0000 C   0  0  0  0  0  0  0  0  0  0  0  0
    5.7760   -2.5981    0.0000 C   0  0  0  0  0  0  0  0  0  0  0  0
    7.2760   -2.5981    0.0000 C   0  0  0  0  0  0  0  0  0  0  0  0
    8.0260   -3.8971    0.0000 C   0  0  0  0  0  0  0  0  0  0  0  0
    9.5260   -3.8971    0.0000 C   0  0  0  0  0  0  0  0  0  0  0  0
   10.2760   -5.1962    0.0000 C   0  0  0  0  0  0  0  0  0  0  0  0
    9.5260   -6.4952    0.0000 O   0  0  0  0  0  0  0  0  0  0  0  0
   11.7760   -5.1962    0.0000 N   0  0  0  0  0  0  0  0  0  0  0  0
   12.5260   -6.4952    0.0000 O   0  0  0  0  0  0  0  0  0  0  0  0
    1.2760    0.0000    0.0000 C   0  0  0  0  0  0  0  0  0  0  0  0
    0.3943    1.2135    0.0000 N   0  0  0  0  0  0  0  0  0  0  0  0
   -1.0323    0.7500    0.0000 C   0  0  0  0  0  0  0  0  0  0  0  0
   -1.0323   -0.7500    0.0000 C   0  0  0  0  0  0  0  0  0  0  0  0
   -2.2458   -1.6317    0.0000 C   0  0  0  0  0  0  0  0  0  0  0  0
   -2.0890   -3.1235    0.0000 O   0  0  0  0  0  0  0  0  0  0  0  0
   -3.6161   -1.0216    0.0000 N   0  0  0  0  0  0  0  0  0  0  0  0
   -4.8297   -1.9033    0.0000 C   0  0  0  0  0  0  0  0  0  0  0  0
   -6.2000   -1.2931    0.0000 C   0  0  0  0  0  0  0  0  0  0  0  0
   -7.4135   -2.1748    0.0000 C   0  0  0  0  0  0  0  0  0  0  0  0
   -8.7838   -1.5647    0.0000 N   0  0  0  0  0  0  0  0  0  0  0  0
  -10.0829   -2.3147    0.0000 C   0  0  0  0  0  0  0  0  0  0  0  0
  -11.1976   -1.3110    0.0000 C   0  0  0  0  0  0  0  0  0  0  0  0
  -10.5875    0.0593    0.0000 N   0  0  0  0  0  0  0  0  0  0  0  0
   -9.0957   -0.0975    0.0000 C   0  0  0  0  0  0  0  0  0  0  0  0
    0.3943   -1.2135    0.0000 S   0  0  0  0  0  0  0  0  0  0  0  0
  1  2  1  0
  2  3  1  0
  2  4  1  0
  4  5  1  0
  5  6  1  0
  6  7  1  0
  7  8  1  0
  8  9  1  0
  9 10  1  0
 10 11  1  0
 11 12  1  0
 12 13  1  0
 13 14  2  0
 13 15  1  0
 15 16  1  0
  6 17  1  0
 17 18  2  0
 18 19  1  0
 19 20  2  0
 20 21  1  0
 21 22  2  0
 21 23  1  0
 23 24  1  0
 24 25  1  0
 25 26  1  0
 26 27  1  0
 27 28  1  0
 28 29  2  0
 29 30  1  0
 30 31  2  0
 20 32  1  0
 32 17  1  0
 31 27  1  0
M  END
>  <molecule_chembl_id>  (1198) 
CHEMBL4170617

>  <canonical_smiles>  (1198) 
CC(C)CCN(CCCCCCC(=O)NO)c1ncc(C(=O)NCCCn2ccnc2)s1

>  <pchembl_value_mean>  (1198) 
8.17

>  <document_chembl_id>  (1198) 
CHEMBL4138269

$$$$

     RDKit          2D

 31 33  0  0  0  0  0  0  0  0999 V2000
    0.7500   -6.4952    0.0000 C   0  0  0  0  0  0  0  0  0  0  0  0
    1.5000   -5.1962    0.0000 O   0  0  0  0  0  0  0  0  0  0  0  0
    0.7500   -3.8971    0.0000 C   0  0  0  0  0  0  0  0  0  0  0  0
    1.5000   -2.5981    0.0000 C   0  0  0  0  0  0  0  0  0  0  0  0
    0.7500   -1.2990    0.0000 C   0  0  0  0  0  0  0  0  0  0  0  0
    1.5000    0.0000    0.0000 N   0  0  0  0  0  0  0  0  0  0  0  0
    0.7500    1.2990    0.0000 C   0  0  0  0  0  0  0  0  0  0  0  0
   -0.7500    1.2990    0.0000 N   0  0  0  0  0  0  0  0  0  0  0  0
   -1.5000    0.0000    0.0000 C   0  0  0  0  0  0  0  0  0  0  0  0
   -3.0000    0.0000    0.0000 N   0  0  0  0  0  0  0  0  0  0  0  0
   -3.7500    1.2990    0.0000 C   0  0  0  0  0  0  0  0  0  0  0  0
   -3.0000    2.5981    0.0000 C   0  0  0  0  0  0  0  0  0  0  0  0
   -3.7500    3.8971    0.0000 C   0  0  0  0  0  0  0  0  0  0  0  0
   -5.2500    3.8971    0.0000 C   0  0  0  0  0  0  0  0  0  0  0  0
   -6.0000    5.1962    0.0000 Cl  0  0  0  0  0  0  0  0  0  0  0  0
   -6.0000    2.5981    0.0000 C   0  0  0  0  0  0  0  0  0  0  0  0
   -5.2500    1.2990    0.0000 C   0  0  0  0  0  0  0  0  0  0  0  0
   -6.0000    0.0000    0.0000 Cl  0  0  0  0  0  0  0  0  0  0  0  0
   -0.7500   -1.2990    0.0000 C   0  0  0  0  0  0  0  0  0  0  0  0
   -1.5000   -2.5981    0.0000 C   0  0  0  0  0  0  0  0  0  0  0  0
   -0.7500   -3.8971    0.0000 C   0  0  0  0  0  0  0  0  0  0  0  0
   -1.5000   -5.1962    0.0000 O   0  0  0  0  0  0  0  0  0  0  0  0
   -3.0000   -5.1962    0.0000 C   0  0  0  0  0  0  0  0  0  0  0  0
   -3.7500   -6.4952    0.0000 C   0  0  0  0  0  0  0  0  0  0  0  0
   -5.2500   -6.4952    0.0000 C   0  0  0  0  0  0  0  0  0  0  0  0
   -6.0000   -7.7942    0.0000 C   0  0  0  0  0  0  0  0  0  0  0  0
   -7.5000   -7.7942    0.0000 C   0  0  0  0  0  0  0  0  0  0  0  0
   -8.2500   -9.0933    0.0000 C   0  0  0  0  0  0  0  0  0  0  0  0
   -7.5000  -10.3923    0.0000 O   0  0  0  0  0  0  0  0  0  0  0  0
   -9.7500   -9.0933    0.0000 N   0  0  0  0  0  0  0  0  0  0  0  0
  -10.5000  -10.3923    0.0000 O   0  0  0  0  0  0  0  0  0  0  0  0
  1  2  1  0
  2  3  1  0
  3  4  2  0
  4  5  1  0
  5  6  2  0
  6  7  1  0
  7  8  2  0
  8  9  1  0
  9 10  1  0
 10 11  1  0
 11 12  2  0
 12 13  1  0
 13 14  2  0
 14 15  1  0
 14 16  1  0
 16 17  2  0
 17 18  1  0
  9 19  2  0
 19 20  1  0
 20 21  2  0
 21 22  1  0
 22 23  1  0
 23 24  1  0
 24 25  1  0
 25 26  1  0
 26 27  1  0
 27 28  1  0
 28 29  2  0
 28 30  1  0
 30 31  1  0
 21  3  1  0
 19  5  1  0
 17 11  1  0
M  END
>  <molecule_chembl_id>  (1199) 
CHEMBL3633769

>  <canonical_smiles>  (1199) 
COc1cc2ncnc(Nc3ccc(Cl)cc3Cl)c2cc1OCCCCCC(=O)NO

>  <pchembl_value_mean>  (1199) 
8.17

>  <document_chembl_id>  (1199) 
CHEMBL3632579

$$$$

     RDKit          2D

 45 48  0  0  0  0  0  0  0  0999 V2000
    1.1892    2.4856    0.0000 C   0  0  0  0  0  0  0  0  0  0  0  0
    0.3943    1.2135    0.0000 C   0  0  0  0  0  0  0  0  0  0  0  0
    1.2760    0.0000    0.0000 C   0  0  0  0  0  0  0  0  0  0  0  0
    0.3943   -1.2135    0.0000 S   0  0  0  0  0  0  0  0  0  0  0  0
   -1.0323   -0.7500    0.0000 C   0  0  0  0  0  0  0  0  0  0  0  0
   -1.0323    0.7500    0.0000 N   0  0  0  0  0  0  0  0  0  0  0  0
   -2.7425   -1.6861    0.0000 C   0  0  0  0  0  0  0  0  0  0  0  0
   -3.5262   -2.9650    0.0000 C   0  0  0  0  0  0  0  0  0  0  0  0
   -4.9848   -2.6149    0.0000 S   0  0  0  0  0  0  0  0  0  0  0  0
   -5.6035   -0.9992    0.0000 C   0  0  0  0  0  0  0  0  0  0  0  0
   -4.2413   -1.6272    0.0000 N   0  0  0  0  0  0  0  0  0  0  0  0
   -6.6217    0.1023    0.0000 C   0  0  0  0  0  0  0  0  0  0  0  0
   -7.1409    1.5096    0.0000 N   0  0  0  0  0  0  0  0  0  0  0  0
   -7.0820    3.0084    0.0000 C   0  0  0  0  0  0  0  0  0  0  0  0
   -8.5406    3.3586    0.0000 O   0  0  0  0  0  0  0  0  0  0  0  0
   -6.4540    4.3706    0.0000 C   0  0  0  0  0  0  0  0  0  0  0  0
   -5.3525    5.3888    0.0000 C   0  0  0  0  0  0  0  0  0  0  0  0
   -6.1363    6.6678    0.0000 C   0  0  0  0  0  0  0  0  0  0  0  0
   -5.4205    7.9860    0.0000 C   0  0  0  0  0  0  0  0  0  0  0  0
   -6.2043    9.2650    0.0000 C   0  0  0  0  0  0  0  0  0  0  0  0
   -5.4886   10.5832    0.0000 C   0  0  0  0  0  0  0  0  0  0  0  0
   -6.2723   11.8622    0.0000 S   0  0  0  0  0  0  0  0  0  0  0  0
   -3.9452    5.9080    0.0000 O   0  0  0  0  0  0  0  0  0  0  0  0
   -2.4464    5.8491    0.0000 C   0  0  0  0  0  0  0  0  0  0  0  0
   -2.0962    7.3077    0.0000 O   0  0  0  0  0  0  0  0  0  0  0  0
   -1.0842    5.2211    0.0000 C   0  0  0  0  0  0  0  0  0  0  0  0
   -0.2025    6.4347    0.0000 C   0  0  0  0  0  0  0  0  0  0  0  0
    1.2893    6.2779    0.0000 C   0  0  0  0  0  0  0  0  0  0  0  0
    2.1709    7.4914    0.0000 C   0  0  0  0  0  0  0  0  0  0  0  0
    3.6627    7.3346    0.0000 C   0  0  0  0  0  0  0  0  0  0  0  0
    4.5444    8.5481    0.0000 N   0  0  0  0  0  0  0  0  0  0  0  0
    6.0362    8.3913    0.0000 C   0  0  0  0  0  0  0  0  0  0  0  0
    6.6463    7.0210    0.0000 O   0  0  0  0  0  0  0  0  0  0  0  0
    6.9179    9.6049    0.0000 O   0  0  0  0  0  0  0  0  0  0  0  0
    8.4097    9.4481    0.0000 C   0  0  0  0  0  0  0  0  0  0  0  0
    8.8357    8.0098    0.0000 C   0  0  0  0  0  0  0  0  0  0  0  0
   10.1539    7.2941    0.0000 C   0  0  0  0  0  0  0  0  0  0  0  0
   11.5921    7.7201    0.0000 C   0  0  0  0  0  0  0  0  0  0  0  0
   12.3079    9.0384    0.0000 C   0  0  0  0  0  0  0  0  0  0  0  0
   11.8818   10.4766    0.0000 C   0  0  0  0  0  0  0  0  0  0  0  0
   10.5636   11.1923    0.0000 C   0  0  0  0  0  0  0  0  0  0  0  0
    9.1254   10.7663    0.0000 C   0  0  0  0  0  0  0  0  0  0  0  0
   -0.0660    4.1197    0.0000 N   0  0  0  0  0  0  0  0  0  0  0  0
    0.4532    2.7124    0.0000 C   0  0  0  0  0  0  0  0  0  0  0  0
    1.9347    2.9470    0.0000 O   0  0  0  0  0  0  0  0  0  0  0  0
  1  2  1  0
  2  3  1  0
  3  4  1  0
  4  5  1  0
  5  6  2  0
  5  7  1  0
  7  8  2  0
  8  9  1  0
  9 10  1  0
 10 11  2  0
 10 12  1  0
 12 13  1  0
 13 14  1  0
 14 15  2  0
 14 16  1  0
 16 17  1  0
 17 18  1  0
 18 19  2  3
 19 20  1  0
 20 21  1  0
 21 22  1  0
 17 23  1  0
 23 24  1  0
 24 25  2  0
 24 26  1  0
 26 27  1  0
 27 28  1  0
 28 29  1  0
 29 30  1  0
 30 31  1  0
 31 32  1  0
 32 33  2  0
 32 34  1  0
 34 35  1  0
 35 36  1  0
 36 37  1  0
 37 38  1  0
 38 39  2  0
 39 40  1  0
 40 41  1  0
 41 42  1  0
 26 43  1  0
 43 44  1  0
 44 45  2  0
  6  2  1  0
 11  7  1  0
 42 35  1  0
 44  2  1  0
M  END
>  <molecule_chembl_id>  (1200) 
CHEMBL4291290

>  <canonical_smiles>  (1200) 
CC12CSC(=N1)c1csc(n1)CNC(=O)CC(C=CCCS)OC(=O)C(CCCCNC(=O)OC1CCC=CCCC1)NC2=O

>  <pchembl_value_mean>  (1200) 
8.18

>  <document_chembl_id>  (1200) 
CHEMBL4261489

$$$$

     RDKit          2D

 33 35  0  0  0  0  0  0  0  0999 V2000
    1.1892    2.4856    0.0000 C   0  0  0  0  0  0  0  0  0  0  0  0
    0.3943    1.2135    0.0000 C   0  0  0  0  0  0  0  0  0  0  0  0
    1.2760    0.0000    0.0000 C   0  0  0  0  0  0  0  0  0  0  0  0
    0.3943   -1.2135    0.0000 S   0  0  0  0  0  0  0  0  0  0  0  0
   -1.0323   -0.7500    0.0000 C   0  0  0  0  0  0  0  0  0  0  0  0
   -1.0323    0.7500    0.0000 N   0  0  0  0  0  0  0  0  0  0  0  0
   -2.7425   -1.6861    0.0000 C   0  0  0  0  0  0  0  0  0  0  0  0
   -3.5262   -2.9650    0.0000 C   0  0  0  0  0  0  0  0  0  0  0  0
   -4.9848   -2.6149    0.0000 S   0  0  0  0  0  0  0  0  0  0  0  0
   -5.6035   -0.9992    0.0000 C   0  0  0  0  0  0  0  0  0  0  0  0
   -4.2413   -1.6272    0.0000 N   0  0  0  0  0  0  0  0  0  0  0  0
   -6.6217    0.1023    0.0000 C   0  0  0  0  0  0  0  0  0  0  0  0
   -7.1409    1.5096    0.0000 N   0  0  0  0  0  0  0  0  0  0  0  0
   -7.0820    3.0084    0.0000 C   0  0  0  0  0  0  0  0  0  0  0  0
   -8.5406    3.3586    0.0000 O   0  0  0  0  0  0  0  0  0  0  0  0
   -6.4540    4.3706    0.0000 C   0  0  0  0  0  0  0  0  0  0  0  0
   -5.3525    5.3888    0.0000 C   0  0  0  0  0  0  0  0  0  0  0  0
   -6.1363    6.6678    0.0000 C   0  0  0  0  0  0  0  0  0  0  0  0
   -5.4205    7.9860    0.0000 C   0  0  0  0  0  0  0  0  0  0  0  0
   -6.2043    9.2650    0.0000 C   0  0  0  0  0  0  0  0  0  0  0  0
   -5.4886   10.5832    0.0000 C   0  0  0  0  0  0  0  0  0  0  0  0
   -6.2723   11.8622    0.0000 S   0  0  0  0  0  0  0  0  0  0  0  0
   -3.9452    5.9080    0.0000 O   0  0  0  0  0  0  0  0  0  0  0  0
   -2.4464    5.8491    0.0000 C   0  0  0  0  0  0  0  0  0  0  0  0
   -2.0962    7.3077    0.0000 O   0  0  0  0  0  0  0  0  0  0  0  0
   -1.0842    5.2211    0.0000 C   0  0  0  0  0  0  0  0  0  0  0  0
   -0.2025    6.4347    0.0000 C   0  0  0  0  0  0  0  0  0  0  0  0
    1.2893    6.2779    0.0000 C   0  0  0  0  0  0  0  0  0  0  0  0
    2.1709    7.4914    0.0000 C   0  0  0  0  0  0  0  0  0  0  0  0
    3.6627    7.3346    0.0000 N   0  0  0  0  0  0  0  0  0  0  0  0
   -0.0660    4.1197    0.0000 N   0  0  0  0  0  0  0  0  0  0  0  0
    0.4532    2.7124    0.0000 C   0  0  0  0  0  0  0  0  0  0  0  0
    1.9347    2.9470    0.0000 O   0  0  0  0  0  0  0  0  0  0  0  0
  1  2  1  0
  2  3  1  0
  3  4  1  0
  4  5  1  0
  5  6  2  0
  5  7  1  0
  7  8  2  0
  8  9  1  0
  9 10  1  0
 10 11  2  0
 10 12  1  0
 12 13  1  0
 13 14  1  0
 14 15  2  0
 14 16  1  0
 16 17  1  0
 17 18  1  0
 18 19  2  3
 19 20  1  0
 20 21  1  0
 21 22  1  0
 17 23  1  0
 23 24  1  0
 24 25  2  0
 24 26  1  0
 26 27  1  0
 27 28  1  0
 28 29  1  0
 29 30  1  0
 26 31  1  0
 31 32  1  0
 32 33  2  0
  6  2  1  0
 11  7  1  0
 32  2  1  0
M  END
>  <molecule_chembl_id>  (1201) 
CHEMBL3317815

>  <canonical_smiles>  (1201) 
CC12CSC(=N1)c1csc(n1)CNC(=O)CC(C=CCCS)OC(=O)C(CCCN)NC2=O

>  <pchembl_value_mean>  (1201) 
8.2

>  <document_chembl_id>  (1201) 
CHEMBL3352389

$$$$

     RDKit          2D

 37 40  0  0  0  0  0  0  0  0999 V2000
    5.7990  -13.7404    0.0000 C   0  0  0  0  0  0  0  0  0  0  0  0
    6.5490  -12.4413    0.0000 C   0  0  0  0  0  0  0  0  0  0  0  0
    5.7990  -11.1423    0.0000 C   0  0  0  0  0  0  0  0  0  0  0  0
    4.2990  -11.1423    0.0000 O   0  0  0  0  0  0  0  0  0  0  0  0
    6.5490   -9.8433    0.0000 C   0  0  0  0  0  0  0  0  0  0  0  0
    5.7990   -8.5442    0.0000 C   0  0  0  0  0  0  0  0  0  0  0  0
    6.5490   -7.2452    0.0000 C   0  0  0  0  0  0  0  0  0  0  0  0
    5.7990   -5.9462    0.0000 C   0  0  0  0  0  0  0  0  0  0  0  0
    6.5490   -4.6471    0.0000 C   0  0  0  0  0  0  0  0  0  0  0  0
    5.7990   -3.3481    0.0000 C   0  0  0  0  0  0  0  0  0  0  0  0
    4.2990   -3.3481    0.0000 N   0  0  0  0  0  0  0  0  0  0  0  0
    3.5490   -2.0490    0.0000 C   0  0  0  0  0  0  0  0  0  0  0  0
    4.2990   -0.7500    0.0000 O   0  0  0  0  0  0  0  0  0  0  0  0
    2.0490   -2.0490    0.0000 C   0  0  0  0  0  0  0  0  0  0  0  0
    0.7500   -2.7990    0.0000 C   0  0  0  0  0  0  0  0  0  0  0  0
    0.7500   -1.2990    0.0000 C   0  0  0  0  0  0  0  0  0  0  0  0
    1.5000    0.0000    0.0000 C   0  0  0  0  0  0  0  0  0  0  0  0
    0.7500    1.2990    0.0000 C   0  0  0  0  0  0  0  0  0  0  0  0
   -0.7500    1.2990    0.0000 N   0  0  0  0  0  0  0  0  0  0  0  0
   -1.5000    2.5981    0.0000 C   0  0  0  0  0  0  0  0  0  0  0  0
   -1.5000    0.0000    0.0000 C   0  0  0  0  0  0  0  0  0  0  0  0
   -0.7500   -1.2990    0.0000 C   0  0  0  0  0  0  0  0  0  0  0  0
    6.5490   -2.0490    0.0000 C   0  0  0  0  0  0  0  0  0  0  0  0
    5.9389   -0.6787    0.0000 N   0  0  0  0  0  0  0  0  0  0  0  0
    7.0537    0.3250    0.0000 C   0  0  0  0  0  0  0  0  0  0  0  0
    6.8969    1.8168    0.0000 C   0  0  0  0  0  0  0  0  0  0  0  0
    8.1104    2.6984    0.0000 C   0  0  0  0  0  0  0  0  0  0  0  0
    7.9536    4.1902    0.0000 C   0  0  0  0  0  0  0  0  0  0  0  0
    6.5833    4.8003    0.0000 C   0  0  0  0  0  0  0  0  0  0  0  0
    6.4265    6.2921    0.0000 F   0  0  0  0  0  0  0  0  0  0  0  0
    5.3697    3.9186    0.0000 C   0  0  0  0  0  0  0  0  0  0  0  0
    5.5265    2.4269    0.0000 C   0  0  0  0  0  0  0  0  0  0  0  0
    8.3527   -0.4250    0.0000 N   0  0  0  0  0  0  0  0  0  0  0  0
    8.0408   -1.8922    0.0000 C   0  0  0  0  0  0  0  0  0  0  0  0
    9.0445   -3.0070    0.0000 C   0  0  0  0  0  0  0  0  0  0  0  0
   10.5117   -2.6951    0.0000 N   0  0  0  0  0  0  0  0  0  0  0  0
    8.5810   -4.4335    0.0000 O   0  0  0  0  0  0  0  0  0  0  0  0
  1  2  1  0
  2  3  1  0
  3  4  2  0
  3  5  1  0
  5  6  1  0
  6  7  1  0
  7  8  1  0
  8  9  1  0
  9 10  1  0
 10 11  1  0
 11 12  1  0
 12 13  2  0
 12 14  1  0
 14 15  1  0
 15 16  1  0
 16 17  1  0
 17 18  1  0
 18 19  1  0
 19 20  1  0
 19 21  1  0
 21 22  1  0
 10 23  1  0
 23 24  1  0
 24 25  1  0
 25 26  1  0
 26 27  2  0
 27 28  1  0
 28 29  2  0
 29 30  1  0
 29 31  1  0
 31 32  2  0
 25 33  2  0
 33 34  1  0
 34 35  1  0
 35 36  1  0
 35 37  2  0
 16 14  1  0
 34 23  2  0
 22 16  1  0
 32 26  1  0
M  END
>  <molecule_chembl_id>  (1202) 
CHEMBL4748244

>  <canonical_smiles>  (1202) 
CCC(=O)CCCCCC(NC(=O)C1CC12CCN(C)CC2)c1[nH]c(-c2ccc(F)cc2)nc1C(N)=O

>  <pchembl_value_mean>  (1202) 
8.2

>  <document_chembl_id>  (1202) 
CHEMBL4665726

$$$$

     RDKit          2D

 22 24  0  0  0  0  0  0  0  0999 V2000
    3.7500    1.2990    0.0000 O   0  0  0  0  0  0  0  0  0  0  0  0
    3.0000    0.0000    0.0000 C   0  0  0  0  0  0  0  0  0  0  0  0
    3.7500   -1.2990    0.0000 N   0  0  0  0  0  0  0  0  0  0  0  0
    5.2500   -1.2990    0.0000 O   0  0  0  0  0  0  0  0  0  0  0  0
    1.5000    0.0000    0.0000 C   0  0  0  0  0  0  0  0  0  0  0  0
    0.7500   -1.2990    0.0000 C   0  0  0  0  0  0  0  0  0  0  0  0
   -0.7500   -1.2990    0.0000 N   0  0  0  0  0  0  0  0  0  0  0  0
   -1.5000    0.0000    0.0000 C   0  0  0  0  0  0  0  0  0  0  0  0
   -3.0000    0.0000    0.0000 N   0  0  0  0  0  0  0  0  0  0  0  0
   -3.7500    1.2990    0.0000 C   0  0  0  0  0  0  0  0  0  0  0  0
   -5.1595    0.7860    0.0000 C   0  0  0  0  0  0  0  0  0  0  0  0
   -5.4200   -0.6912    0.0000 C   0  0  0  0  0  0  0  0  0  0  0  0
   -4.2709   -1.6554    0.0000 F   0  0  0  0  0  0  0  0  0  0  0  0
   -6.8296   -1.2042    0.0000 C   0  0  0  0  0  0  0  0  0  0  0  0
   -7.9786   -0.2401    0.0000 C   0  0  0  0  0  0  0  0  0  0  0  0
   -7.7181    1.2372    0.0000 C   0  0  0  0  0  0  0  0  0  0  0  0
   -6.3086    1.7502    0.0000 C   0  0  0  0  0  0  0  0  0  0  0  0
   -6.0481    3.2274    0.0000 F   0  0  0  0  0  0  0  0  0  0  0  0
   -4.0105    2.7762    0.0000 C   0  0  0  0  0  0  0  0  0  0  0  0
   -2.6009    2.2632    0.0000 C   0  0  0  0  0  0  0  0  0  0  0  0
   -0.7500    1.2990    0.0000 N   0  0  0  0  0  0  0  0  0  0  0  0
    0.7500    1.2990    0.0000 C   0  0  0  0  0  0  0  0  0  0  0  0
  1  2  2  0
  2  3  1  0
  3  4  1  0
  2  5  1  0
  5  6  2  0
  6  7  1  0
  7  8  2  0
  8  9  1  0
  9 10  1  0
 10 11  1  0
 11 12  2  0
 12 13  1  0
 12 14  1  0
 14 15  2  0
 15 16  1  0
 16 17  2  0
 17 18  1  0
 10 19  1  0
 19 20  1  0
  8 21  1  0
 21 22  2  0
 22  5  1  0
 20 10  1  0
 17 11  1  0
M  END
>  <molecule_chembl_id>  (1203) 
CHEMBL3655993

>  <canonical_smiles>  (1203) 
O=C(NO)c1cnc(NC2(c3c(F)cccc3F)CC2)nc1

>  <pchembl_value_mean>  (1203) 
8.22

>  <document_chembl_id>  (1203) 
CHEMBL3639071

$$$$

     RDKit          2D

 31 33  0  0  0  0  0  0  0  0999 V2000
    6.0000   -5.1962    0.0000 C   0  0  0  0  0  0  0  0  0  0  0  0
    5.2500   -3.8971    0.0000 O   0  0  0  0  0  0  0  0  0  0  0  0
    3.7500   -3.8971    0.0000 C   0  0  0  0  0  0  0  0  0  0  0  0
    3.0000   -5.1962    0.0000 C   0  0  0  0  0  0  0  0  0  0  0  0
    1.5000   -5.1962    0.0000 C   0  0  0  0  0  0  0  0  0  0  0  0
    0.7500   -3.8971    0.0000 C   0  0  0  0  0  0  0  0  0  0  0  0
    1.5000   -2.5981    0.0000 C   0  0  0  0  0  0  0  0  0  0  0  0
    0.7500   -1.2990    0.0000 C   0  0  0  0  0  0  0  0  0  0  0  0
    1.5000    0.0000    0.0000 C   0  0  0  0  0  0  0  0  0  0  0  0
    0.7500    1.2990    0.0000 C   0  0  0  0  0  0  0  0  0  0  0  0
   -0.7500    1.2990    0.0000 C   0  0  0  0  0  0  0  0  0  0  0  0
   -1.7537    2.4138    0.0000 C   0  0  0  0  0  0  0  0  0  0  0  0
   -1.4418    3.8810    0.0000 N   0  0  0  0  0  0  0  0  0  0  0  0
   -2.5565    4.8847    0.0000 C   0  0  0  0  0  0  0  0  0  0  0  0
   -3.9831    4.4211    0.0000 O   0  0  0  0  0  0  0  0  0  0  0  0
   -2.2447    6.3519    0.0000 C   0  0  0  0  0  0  0  0  0  0  0  0
   -3.3594    7.3556    0.0000 C   0  0  0  0  0  0  0  0  0  0  0  0
   -3.0475    8.8228    0.0000 C   0  0  0  0  0  0  0  0  0  0  0  0
   -4.1622    9.8265    0.0000 C   0  0  0  0  0  0  0  0  0  0  0  0
   -3.8504   11.2937    0.0000 C   0  0  0  0  0  0  0  0  0  0  0  0
   -4.9651   12.2974    0.0000 C   0  0  0  0  0  0  0  0  0  0  0  0
   -4.6532   13.7646    0.0000 C   0  0  0  0  0  0  0  0  0  0  0  0
   -3.2266   14.2282    0.0000 O   0  0  0  0  0  0  0  0  0  0  0  0
   -5.7679   14.7683    0.0000 N   0  0  0  0  0  0  0  0  0  0  0  0
   -5.4561   16.2356    0.0000 O   0  0  0  0  0  0  0  0  0  0  0  0
   -3.1240    1.8037    0.0000 N   0  0  0  0  0  0  0  0  0  0  0  0
   -2.9672    0.3119    0.0000 N   0  0  0  0  0  0  0  0  0  0  0  0
   -1.5000    0.0000    0.0000 C   0  0  0  0  0  0  0  0  0  0  0  0
   -0.7500   -1.2990    0.0000 C   0  0  0  0  0  0  0  0  0  0  0  0
    3.0000   -2.5981    0.0000 C   0  0  0  0  0  0  0  0  0  0  0  0
    3.7500   -1.2990    0.0000 F   0  0  0  0  0  0  0  0  0  0  0  0
  1  2  1  0
  2  3  1  0
  3  4  2  0
  4  5  1  0
  5  6  2  0
  6  7  1  0
  7  8  1  0
  8  9  2  0
  9 10  1  0
 10 11  2  0
 11 12  1  0
 12 13  1  0
 13 14  1  0
 14 15  2  0
 14 16  1  0
 16 17  1  0
 17 18  1  0
 18 19  1  0
 19 20  1  0
 20 21  1  0
 21 22  1  0
 22 23  2  0
 22 24  1  0
 24 25  1  0
 12 26  2  0
 26 27  1  0
 27 28  1  0
 28 29  2  0
  7 30  2  0
 30 31  1  0
 30  3  1  0
 29  8  1  0
 28 11  1  0
M  END
>  <molecule_chembl_id>  (1204) 
CHEMBL4776974

>  <canonical_smiles>  (1204) 
COc1cccc(-c2ccc3c(NC(=O)CCCCCCC(=O)NO)n[nH]c3c2)c1F

>  <pchembl_value_mean>  (1204) 
8.22

>  <document_chembl_id>  (1204) 
CHEMBL4765277

$$$$

     RDKit          2D

 24 26  0  0  0  0  0  0  0  0999 V2000
  -12.9291   -5.8905    0.0000 O   0  0  0  0  0  0  0  0  0  0  0  0
  -13.5392   -4.5201    0.0000 C   0  0  0  0  0  0  0  0  0  0  0  0
  -12.6575   -3.3066    0.0000 C   0  0  0  0  0  0  0  0  0  0  0  0
  -11.1657   -3.4634    0.0000 C   0  0  0  0  0  0  0  0  0  0  0  0
  -10.2840   -2.2499    0.0000 C   0  0  0  0  0  0  0  0  0  0  0  0
   -8.7923   -2.4067    0.0000 C   0  0  0  0  0  0  0  0  0  0  0  0
   -7.9106   -1.1931    0.0000 C   0  0  0  0  0  0  0  0  0  0  0  0
   -6.4188   -1.3499    0.0000 C   0  0  0  0  0  0  0  0  0  0  0  0
   -5.5371   -0.1364    0.0000 N   0  0  0  0  0  0  0  0  0  0  0  0
   -4.0371   -0.1364    0.0000 C   0  0  0  0  0  0  0  0  0  0  0  0
   -3.5736    1.2902    0.0000 C   0  0  0  0  0  0  0  0  0  0  0  0
   -2.1470    1.7537    0.0000 C   0  0  0  0  0  0  0  0  0  0  0  0
   -1.8351    3.2209    0.0000 N   0  0  0  0  0  0  0  0  0  0  0  0
   -0.4086    3.6844    0.0000 C   0  0  0  0  0  0  0  0  0  0  0  0
    0.7062    2.6807    0.0000 N   0  0  0  0  0  0  0  0  0  0  0  0
    0.3943    1.2135    0.0000 C   0  0  0  0  0  0  0  0  0  0  0  0
    1.2760    0.0000    0.0000 N   0  0  0  0  0  0  0  0  0  0  0  0
    0.3943   -1.2135    0.0000 C   0  0  0  0  0  0  0  0  0  0  0  0
   -1.0323   -0.7500    0.0000 C   0  0  0  0  0  0  0  0  0  0  0  0
   -1.0323    0.7500    0.0000 C   0  0  0  0  0  0  0  0  0  0  0  0
   -4.7871    2.1718    0.0000 C   0  0  0  0  0  0  0  0  0  0  0  0
   -6.0006    1.2902    0.0000 N   0  0  0  0  0  0  0  0  0  0  0  0
  -15.0310   -4.3633    0.0000 N   0  0  0  0  0  0  0  0  0  0  0  0
  -15.9126   -5.5769    0.0000 O   0  0  0  0  0  0  0  0  0  0  0  0
  1  2  2  0
  2  3  1  0
  3  4  1  0
  4  5  1  0
  5  6  1  0
  6  7  1  0
  7  8  1  0
  8  9  1  0
  9 10  1  0
 10 11  2  0
 11 12  1  0
 12 13  2  0
 13 14  1  0
 14 15  2  0
 15 16  1  0
 16 17  1  0
 17 18  1  0
 18 19  2  0
 19 20  1  0
 11 21  1  0
 21 22  2  0
  2 23  1  0
 23 24  1  0
 22  9  1  0
 20 12  1  0
 20 16  2  0
M  END
>  <molecule_chembl_id>  (1205) 
CHEMBL4060201

>  <canonical_smiles>  (1205) 
O=C(CCCCCCn1cc(-c2ncnc3[nH]ccc23)cn1)NO

>  <pchembl_value_mean>  (1205) 
8.24

>  <document_chembl_id>  (1205) 
CHEMBL4028864

$$$$

     RDKit          2D

 30 32  0  0  0  0  0  0  0  0999 V2000
    5.2500   -1.2990    0.0000 C   0  0  0  0  0  0  0  0  0  0  0  0
    3.7500   -1.2990    0.0000 O   0  0  0  0  0  0  0  0  0  0  0  0
    3.0000   -2.5981    0.0000 C   0  0  0  0  0  0  0  0  0  0  0  0
    3.7500   -3.8971    0.0000 C   0  0  0  0  0  0  0  0  0  0  0  0
    3.0000   -5.1962    0.0000 C   0  0  0  0  0  0  0  0  0  0  0  0
    1.5000   -5.1962    0.0000 C   0  0  0  0  0  0  0  0  0  0  0  0
    0.7500   -3.8971    0.0000 C   0  0  0  0  0  0  0  0  0  0  0  0
    1.5000   -2.5981    0.0000 C   0  0  0  0  0  0  0  0  0  0  0  0
    0.7500   -1.2990    0.0000 C   0  0  0  0  0  0  0  0  0  0  0  0
    1.5000    0.0000    0.0000 C   0  0  0  0  0  0  0  0  0  0  0  0
    0.7500    1.2990    0.0000 C   0  0  0  0  0  0  0  0  0  0  0  0
   -0.7500    1.2990    0.0000 C   0  0  0  0  0  0  0  0  0  0  0  0
   -1.7537    2.4138    0.0000 C   0  0  0  0  0  0  0  0  0  0  0  0
   -1.4418    3.8810    0.0000 N   0  0  0  0  0  0  0  0  0  0  0  0
   -2.5565    4.8847    0.0000 C   0  0  0  0  0  0  0  0  0  0  0  0
   -3.9831    4.4211    0.0000 O   0  0  0  0  0  0  0  0  0  0  0  0
   -2.2447    6.3519    0.0000 C   0  0  0  0  0  0  0  0  0  0  0  0
   -3.3594    7.3556    0.0000 C   0  0  0  0  0  0  0  0  0  0  0  0
   -3.0475    8.8228    0.0000 C   0  0  0  0  0  0  0  0  0  0  0  0
   -4.1622    9.8265    0.0000 C   0  0  0  0  0  0  0  0  0  0  0  0
   -3.8504   11.2937    0.0000 C   0  0  0  0  0  0  0  0  0  0  0  0
   -4.9651   12.2974    0.0000 C   0  0  0  0  0  0  0  0  0  0  0  0
   -4.6532   13.7646    0.0000 C   0  0  0  0  0  0  0  0  0  0  0  0
   -3.2266   14.2282    0.0000 O   0  0  0  0  0  0  0  0  0  0  0  0
   -5.7679   14.7683    0.0000 N   0  0  0  0  0  0  0  0  0  0  0  0
   -5.4561   16.2356    0.0000 O   0  0  0  0  0  0  0  0  0  0  0  0
   -3.1240    1.8037    0.0000 N   0  0  0  0  0  0  0  0  0  0  0  0
   -2.9672    0.3119    0.0000 N   0  0  0  0  0  0  0  0  0  0  0  0
   -1.5000    0.0000    0.0000 C   0  0  0  0  0  0  0  0  0  0  0  0
   -0.7500   -1.2990    0.0000 C   0  0  0  0  0  0  0  0  0  0  0  0
  1  2  1  0
  2  3  1  0
  3  4  2  0
  4  5  1  0
  5  6  2  0
  6  7  1  0
  7  8  2  0
  8  9  1  0
  9 10  2  0
 10 11  1  0
 11 12  2  0
 12 13  1  0
 13 14  1  0
 14 15  1  0
 15 16  2  0
 15 17  1  0
 17 18  1  0
 18 19  1  0
 19 20  1  0
 20 21  1  0
 21 22  1  0
 22 23  1  0
 23 24  2  0
 23 25  1  0
 25 26  1  0
 13 27  2  0
 27 28  1  0
 28 29  1  0
 29 30  2  0
  8  3  1  0
 30  9  1  0
 29 12  1  0
M  END
>  <molecule_chembl_id>  (1206) 
CHEMBL4786063

>  <canonical_smiles>  (1206) 
COc1ccccc1-c1ccc2c(NC(=O)CCCCCCC(=O)NO)n[nH]c2c1

>  <pchembl_value_mean>  (1206) 
8.27

>  <document_chembl_id>  (1206) 
CHEMBL4765277

$$$$

     RDKit          2D

 38 42  0  0  0  0  0  0  0  0999 V2000
   10.7824  -15.8378    0.0000 C   0  0  0  0  0  0  0  0  0  0  0  0
    9.4121  -15.2277    0.0000 C   0  0  0  0  0  0  0  0  0  0  0  0
    9.2553  -13.7359    0.0000 C   0  0  0  0  0  0  0  0  0  0  0  0
   10.4688  -12.8543    0.0000 O   0  0  0  0  0  0  0  0  0  0  0  0
    7.8850  -13.1258    0.0000 C   0  0  0  0  0  0  0  0  0  0  0  0
    7.7282  -11.6340    0.0000 C   0  0  0  0  0  0  0  0  0  0  0  0
    6.3579  -11.0239    0.0000 C   0  0  0  0  0  0  0  0  0  0  0  0
    6.2011   -9.5322    0.0000 C   0  0  0  0  0  0  0  0  0  0  0  0
    4.8308   -8.9221    0.0000 C   0  0  0  0  0  0  0  0  0  0  0  0
    4.6740   -7.4303    0.0000 C   0  0  0  0  0  0  0  0  0  0  0  0
    5.8875   -6.5486    0.0000 N   0  0  0  0  0  0  0  0  0  0  0  0
    7.2578   -7.1587    0.0000 C   0  0  0  0  0  0  0  0  0  0  0  0
    7.4146   -8.6505    0.0000 O   0  0  0  0  0  0  0  0  0  0  0  0
    8.4713   -6.2770    0.0000 C   0  0  0  0  0  0  0  0  0  0  0  0
    9.9529   -6.5117    0.0000 C   0  0  0  0  0  0  0  0  0  0  0  0
   10.1875   -5.0301    0.0000 C   0  0  0  0  0  0  0  0  0  0  0  0
    8.7060   -4.7955    0.0000 C   0  0  0  0  0  0  0  0  0  0  0  0
   11.6691   -5.2648    0.0000 C   0  0  0  0  0  0  0  0  0  0  0  0
   11.9037   -3.7833    0.0000 N   0  0  0  0  0  0  0  0  0  0  0  0
   13.1172   -2.9016    0.0000 C   0  0  0  0  0  0  0  0  0  0  0  0
   10.4222   -3.5486    0.0000 C   0  0  0  0  0  0  0  0  0  0  0  0
    3.3037   -6.8202    0.0000 C   0  0  0  0  0  0  0  0  0  0  0  0
    2.0046   -7.5702    0.0000 N   0  0  0  0  0  0  0  0  0  0  0  0
    0.8899   -6.5665    0.0000 C   0  0  0  0  0  0  0  0  0  0  0  0
    1.5000   -5.1962    0.0000 C   0  0  0  0  0  0  0  0  0  0  0  0
    0.7500   -3.8971    0.0000 C   0  0  0  0  0  0  0  0  0  0  0  0
    1.5000   -2.5981    0.0000 C   0  0  0  0  0  0  0  0  0  0  0  0
    0.7500   -1.2990    0.0000 C   0  0  0  0  0  0  0  0  0  0  0  0
    1.5000    0.0000    0.0000 C   0  0  0  0  0  0  0  0  0  0  0  0
    0.7500    1.2990    0.0000 C   0  0  0  0  0  0  0  0  0  0  0  0
   -0.7500    1.2990    0.0000 C   0  0  0  0  0  0  0  0  0  0  0  0
   -1.5000    0.0000    0.0000 C   0  0  0  0  0  0  0  0  0  0  0  0
   -0.7500   -1.2990    0.0000 C   0  0  0  0  0  0  0  0  0  0  0  0
   -1.5000   -2.5981    0.0000 N   0  0  0  0  0  0  0  0  0  0  0  0
   -0.7500   -3.8971    0.0000 C   0  0  0  0  0  0  0  0  0  0  0  0
   -1.5000   -5.1962    0.0000 O   0  0  0  0  0  0  0  0  0  0  0  0
   -3.0000   -5.1962    0.0000 C   0  0  0  0  0  0  0  0  0  0  0  0
    2.9918   -5.3529    0.0000 N   0  0  0  0  0  0  0  0  0  0  0  0
  1  2  1  0
  2  3  1  0
  3  4  2  0
  3  5  1  0
  5  6  1  0
  6  7  1  0
  7  8  1  0
  8  9  1  0
  9 10  1  0
 10 11  1  0
 11 12  1  0
 12 13  2  0
 12 14  1  0
 14 15  1  0
 15 16  1  0
 16 17  1  0
 16 18  1  0
 18 19  1  0
 19 20  1  0
 19 21  1  0
 10 22  1  0
 22 23  2  0
 23 24  1  0
 24 25  2  0
 25 26  1  0
 26 27  2  0
 27 28  1  0
 28 29  2  0
 29 30  1  0
 30 31  2  0
 31 32  1  0
 32 33  2  0
 33 34  1  0
 34 35  2  0
 35 36  1  0
 36 37  1  0
 25 38  1  0
 17 14  1  0
 38 22  1  0
 21 16  1  0
 35 26  1  0
 33 28  1  0
M  END
>  <molecule_chembl_id>  (1207) 
CHEMBL4641343

>  <canonical_smiles>  (1207) 
CCC(=O)CCCCCC(NC(=O)C1CC2(C1)CN(C)C2)c1ncc(-c2cc3ccccc3nc2OC)[nH]1

>  <pchembl_value_mean>  (1207) 
8.27

>  <document_chembl_id>  (1207) 
CHEMBL4622849

$$$$

     RDKit          2D

 41 45  0  0  0  0  0  0  0  0999 V2000
   11.5595  -14.0426    0.0000 C   0  0  0  0  0  0  0  0  0  0  0  0
   10.1892  -13.4325    0.0000 C   0  0  0  0  0  0  0  0  0  0  0  0
   10.0324  -11.9407    0.0000 C   0  0  0  0  0  0  0  0  0  0  0  0
   11.2459  -11.0590    0.0000 O   0  0  0  0  0  0  0  0  0  0  0  0
    8.6621  -11.3306    0.0000 C   0  0  0  0  0  0  0  0  0  0  0  0
    8.5053   -9.8388    0.0000 C   0  0  0  0  0  0  0  0  0  0  0  0
    7.1350   -9.2287    0.0000 C   0  0  0  0  0  0  0  0  0  0  0  0
    6.9782   -7.7369    0.0000 C   0  0  0  0  0  0  0  0  0  0  0  0
    5.6079   -7.1268    0.0000 C   0  0  0  0  0  0  0  0  0  0  0  0
    5.4511   -5.6350    0.0000 C   0  0  0  0  0  0  0  0  0  0  0  0
    4.0808   -5.0249    0.0000 N   0  0  0  0  0  0  0  0  0  0  0  0
    3.9240   -3.5332    0.0000 C   0  0  0  0  0  0  0  0  0  0  0  0
    5.1375   -2.6515    0.0000 O   0  0  0  0  0  0  0  0  0  0  0  0
    2.5537   -2.9231    0.0000 C   0  0  0  0  0  0  0  0  0  0  0  0
    1.2546   -3.6731    0.0000 N   0  0  0  0  0  0  0  0  0  0  0  0
    0.1399   -2.6694    0.0000 O   0  0  0  0  0  0  0  0  0  0  0  0
    0.7500   -1.2990    0.0000 C   0  0  0  0  0  0  0  0  0  0  0  0
    1.5000    0.0000    0.0000 C   0  0  0  0  0  0  0  0  0  0  0  0
    0.7500    1.2990    0.0000 C   0  0  0  0  0  0  0  0  0  0  0  0
   -0.7500    1.2990    0.0000 N   0  0  0  0  0  0  0  0  0  0  0  0
   -1.5000    2.5981    0.0000 C   0  0  0  0  0  0  0  0  0  0  0  0
   -1.5000    0.0000    0.0000 C   0  0  0  0  0  0  0  0  0  0  0  0
   -0.7500   -1.2990    0.0000 C   0  0  0  0  0  0  0  0  0  0  0  0
    2.2418   -1.4558    0.0000 C   0  0  0  0  0  0  0  0  0  0  0  0
    6.6646   -4.7534    0.0000 C   0  0  0  0  0  0  0  0  0  0  0  0
    6.6646   -3.2534    0.0000 N   0  0  0  0  0  0  0  0  0  0  0  0
    8.0912   -2.7898    0.0000 C   0  0  0  0  0  0  0  0  0  0  0  0
    8.9729   -4.0034    0.0000 C   0  0  0  0  0  0  0  0  0  0  0  0
   10.4729   -4.0034    0.0000 C   0  0  0  0  0  0  0  0  0  0  0  0
   11.2229   -5.3024    0.0000 C   0  0  0  0  0  0  0  0  0  0  0  0
   12.7229   -5.3024    0.0000 C   0  0  0  0  0  0  0  0  0  0  0  0
   13.4729   -6.6014    0.0000 C   0  0  0  0  0  0  0  0  0  0  0  0
   14.9729   -6.6014    0.0000 C   0  0  0  0  0  0  0  0  0  0  0  0
   15.7229   -5.3024    0.0000 C   0  0  0  0  0  0  0  0  0  0  0  0
   14.9729   -4.0034    0.0000 C   0  0  0  0  0  0  0  0  0  0  0  0
   13.4729   -4.0034    0.0000 C   0  0  0  0  0  0  0  0  0  0  0  0
   12.7229   -2.7043    0.0000 N   0  0  0  0  0  0  0  0  0  0  0  0
   11.2229   -2.7043    0.0000 C   0  0  0  0  0  0  0  0  0  0  0  0
   10.4729   -1.4053    0.0000 O   0  0  0  0  0  0  0  0  0  0  0  0
   11.2229   -0.1063    0.0000 C   0  0  0  0  0  0  0  0  0  0  0  0
    8.0912   -5.2169    0.0000 N   0  0  0  0  0  0  0  0  0  0  0  0
  1  2  1  0
  2  3  1  0
  3  4  2  0
  3  5  1  0
  5  6  1  0
  6  7  1  0
  7  8  1  0
  8  9  1  0
  9 10  1  0
 10 11  1  0
 11 12  1  0
 12 13  2  0
 12 14  1  0
 14 15  2  0
 15 16  1  0
 16 17  1  0
 17 18  1  0
 18 19  1  0
 19 20  1  0
 20 21  1  0
 20 22  1  0
 22 23  1  0
 17 24  1  0
 10 25  1  0
 25 26  2  0
 26 27  1  0
 27 28  2  0
 28 29  1  0
 29 30  2  0
 30 31  1  0
 31 32  2  0
 32 33  1  0
 33 34  2  0
 34 35  1  0
 35 36  2  0
 36 37  1  0
 37 38  2  0
 38 39  1  0
 39 40  1  0
 28 41  1  0
 24 14  1  0
 41 25  1  0
 23 17  1  0
 38 29  1  0
 36 31  1  0
M  END
>  <molecule_chembl_id>  (1208) 
CHEMBL4633758

>  <canonical_smiles>  (1208) 
CCC(=O)CCCCCC(NC(=O)C1=NOC2(CCN(C)CC2)C1)c1ncc(-c2cc3ccccc3nc2OC)[nH]1

>  <pchembl_value_mean>  (1208) 
8.28

>  <document_chembl_id>  (1208) 
CHEMBL4622849

$$$$

     RDKit          2D

 32 35  0  0  0  0  0  0  0  0999 V2000
   -7.5000   -5.1962    0.0000 O   0  0  0  0  0  0  0  0  0  0  0  0
   -6.0000   -5.1962    0.0000 C   0  0  0  0  0  0  0  0  0  0  0  0
   -5.2500   -6.4952    0.0000 N   0  0  0  0  0  0  0  0  0  0  0  0
   -6.0000   -7.7942    0.0000 O   0  0  0  0  0  0  0  0  0  0  0  0
   -5.2500   -3.8971    0.0000 C   0  0  0  0  0  0  0  0  0  0  0  0
   -3.7500   -3.8971    0.0000 C   0  0  0  0  0  0  0  0  0  0  0  0
   -3.0000   -2.5981    0.0000 N   0  0  0  0  0  0  0  0  0  0  0  0
   -3.7500   -1.2990    0.0000 C   0  0  0  0  0  0  0  0  0  0  0  0
   -3.0000    0.0000    0.0000 N   0  0  0  0  0  0  0  0  0  0  0  0
   -3.7500    1.2990    0.0000 C   0  0  0  0  0  0  0  0  0  0  0  0
   -2.3405    1.8121    0.0000 C   0  0  0  0  0  0  0  0  0  0  0  0
   -1.1914    0.8479    0.0000 C   0  0  0  0  0  0  0  0  0  0  0  0
    0.2181    1.3609    0.0000 C   0  0  0  0  0  0  0  0  0  0  0  0
    0.4786    2.8381    0.0000 C   0  0  0  0  0  0  0  0  0  0  0  0
   -0.6704    3.8023    0.0000 C   0  0  0  0  0  0  0  0  0  0  0  0
   -2.0800    3.2893    0.0000 C   0  0  0  0  0  0  0  0  0  0  0  0
   -4.8991    0.3349    0.0000 C   0  0  0  0  0  0  0  0  0  0  0  0
   -6.3086    0.8479    0.0000 C   0  0  0  0  0  0  0  0  0  0  0  0
   -6.5691    2.3251    0.0000 N   0  0  0  0  0  0  0  0  0  0  0  0
   -7.9786    2.8381    0.0000 C   0  0  0  0  0  0  0  0  0  0  0  0
   -9.1277    1.8739    0.0000 S   0  0  0  0  0  0  0  0  0  0  0  0
   -8.2391    4.3153    0.0000 N   0  0  0  0  0  0  0  0  0  0  0  0
   -9.6486    4.8284    0.0000 C   0  0  0  0  0  0  0  0  0  0  0  0
   -9.9091    6.3056    0.0000 C   0  0  0  0  0  0  0  0  0  0  0  0
  -11.3186    6.8186    0.0000 C   0  0  0  0  0  0  0  0  0  0  0  0
  -12.4677    5.8544    0.0000 C   0  0  0  0  0  0  0  0  0  0  0  0
  -12.2072    4.3772    0.0000 C   0  0  0  0  0  0  0  0  0  0  0  0
  -10.7977    3.8642    0.0000 C   0  0  0  0  0  0  0  0  0  0  0  0
   -5.4200    3.2893    0.0000 C   0  0  0  0  0  0  0  0  0  0  0  0
   -4.0105    2.7762    0.0000 C   0  0  0  0  0  0  0  0  0  0  0  0
   -5.2500   -1.2990    0.0000 N   0  0  0  0  0  0  0  0  0  0  0  0
   -6.0000   -2.5981    0.0000 C   0  0  0  0  0  0  0  0  0  0  0  0
  1  2  2  0
  2  3  1  0
  3  4  1  0
  2  5  1  0
  5  6  2  0
  6  7  1  0
  7  8  2  0
  8  9  1  0
  9 10  1  0
 10 11  1  0
 11 12  2  0
 12 13  1  0
 13 14  2  0
 14 15  1  0
 15 16  2  0
 10 17  1  0
 17 18  1  0
 18 19  1  0
 19 20  1  0
 20 21  2  0
 20 22  1  0
 22 23  1  0
 23 24  2  0
 24 25  1  0
 25 26  2  0
 26 27  1  0
 27 28  2  0
 19 29  1  0
 29 30  1  0
  8 31  1  0
 31 32  2  0
 32  5  1  0
 30 10  1  0
 16 11  1  0
 28 23  1  0
M  END
>  <molecule_chembl_id>  (1209) 
CHEMBL3952742

>  <canonical_smiles>  (1209) 
O=C(NO)c1cnc(NC2(c3ccccc3)CCN(C(=S)Nc3ccccc3)CC2)nc1

>  <pchembl_value_mean>  (1209) 
8.28

>  <document_chembl_id>  (1209) 
CHEMBL3886590

$$$$

     RDKit          2D

 29 31  0  0  0  0  0  0  0  0999 V2000
  -10.7086   -9.9084    0.0000 O   0  0  0  0  0  0  0  0  0  0  0  0
   -9.5939  -10.9121    0.0000 C   0  0  0  0  0  0  0  0  0  0  0  0
   -8.1673  -10.4486    0.0000 C   0  0  0  0  0  0  0  0  0  0  0  0
   -7.8555   -8.9814    0.0000 C   0  0  0  0  0  0  0  0  0  0  0  0
   -6.4289   -8.5179    0.0000 C   0  0  0  0  0  0  0  0  0  0  0  0
   -6.1170   -7.0506    0.0000 C   0  0  0  0  0  0  0  0  0  0  0  0
   -4.6904   -6.5871    0.0000 C   0  0  0  0  0  0  0  0  0  0  0  0
   -4.3786   -5.1199    0.0000 C   0  0  0  0  0  0  0  0  0  0  0  0
   -2.9520   -4.6564    0.0000 C   0  0  0  0  0  0  0  0  0  0  0  0
   -1.8373   -5.6601    0.0000 O   0  0  0  0  0  0  0  0  0  0  0  0
   -2.6401   -3.1891    0.0000 N   0  0  0  0  0  0  0  0  0  0  0  0
   -1.2135   -2.7256    0.0000 C   0  0  0  0  0  0  0  0  0  0  0  0
   -0.0000   -3.6073    0.0000 N   0  0  0  0  0  0  0  0  0  0  0  0
    1.2135   -2.7256    0.0000 N   0  0  0  0  0  0  0  0  0  0  0  0
    0.7500   -1.2990    0.0000 C   0  0  0  0  0  0  0  0  0  0  0  0
    1.5000    0.0000    0.0000 C   0  0  0  0  0  0  0  0  0  0  0  0
    0.7500    1.2990    0.0000 C   0  0  0  0  0  0  0  0  0  0  0  0
    1.5000    2.5981    0.0000 C   0  0  0  0  0  0  0  0  0  0  0  0
    3.0000    2.5981    0.0000 C   0  0  0  0  0  0  0  0  0  0  0  0
    3.7500    3.8971    0.0000 C   0  0  0  0  0  0  0  0  0  0  0  0
    3.0000    5.1962    0.0000 C   0  0  0  0  0  0  0  0  0  0  0  0
    1.5000    5.1962    0.0000 C   0  0  0  0  0  0  0  0  0  0  0  0
    0.7500    3.8971    0.0000 C   0  0  0  0  0  0  0  0  0  0  0  0
   -0.7500    3.8971    0.0000 Cl  0  0  0  0  0  0  0  0  0  0  0  0
   -0.7500    1.2990    0.0000 C   0  0  0  0  0  0  0  0  0  0  0  0
   -1.5000    0.0000    0.0000 C   0  0  0  0  0  0  0  0  0  0  0  0
   -0.7500   -1.2990    0.0000 C   0  0  0  0  0  0  0  0  0  0  0  0
   -9.9058  -12.3794    0.0000 N   0  0  0  0  0  0  0  0  0  0  0  0
  -11.3324  -12.8429    0.0000 O   0  0  0  0  0  0  0  0  0  0  0  0
  1  2  2  0
  2  3  1  0
  3  4  1  0
  4  5  1  0
  5  6  1  0
  6  7  1  0
  7  8  1  0
  8  9  1  0
  9 10  2  0
  9 11  1  0
 11 12  1  0
 12 13  2  0
 13 14  1  0
 14 15  1  0
 15 16  2  0
 16 17  1  0
 17 18  1  0
 18 19  2  0
 19 20  1  0
 20 21  2  0
 21 22  1  0
 22 23  2  0
 23 24  1  0
 17 25  2  0
 25 26  1  0
 26 27  2  0
  2 28  1  0
 28 29  1  0
 27 12  1  0
 27 15  1  0
 23 18  1  0
M  END
>  <molecule_chembl_id>  (1210) 
CHEMBL4792567

>  <canonical_smiles>  (1210) 
O=C(CCCCCCC(=O)Nc1n[nH]c2cc(-c3ccccc3Cl)ccc12)NO

>  <pchembl_value_mean>  (1210) 
8.28

>  <document_chembl_id>  (1210) 
CHEMBL4765277

$$$$

     RDKit          2D

 30 32  0  0  0  0  0  0  0  0999 V2000
    6.0000   -5.1962    0.0000 C   0  0  0  0  0  0  0  0  0  0  0  0
    5.2500   -3.8971    0.0000 O   0  0  0  0  0  0  0  0  0  0  0  0
    3.7500   -3.8971    0.0000 C   0  0  0  0  0  0  0  0  0  0  0  0
    3.0000   -5.1962    0.0000 C   0  0  0  0  0  0  0  0  0  0  0  0
    1.5000   -5.1962    0.0000 C   0  0  0  0  0  0  0  0  0  0  0  0
    0.7500   -3.8971    0.0000 C   0  0  0  0  0  0  0  0  0  0  0  0
    1.5000   -2.5981    0.0000 C   0  0  0  0  0  0  0  0  0  0  0  0
    0.7500   -1.2990    0.0000 C   0  0  0  0  0  0  0  0  0  0  0  0
    1.5000    0.0000    0.0000 C   0  0  0  0  0  0  0  0  0  0  0  0
    0.7500    1.2990    0.0000 C   0  0  0  0  0  0  0  0  0  0  0  0
   -0.7500    1.2990    0.0000 C   0  0  0  0  0  0  0  0  0  0  0  0
   -1.7537    2.4138    0.0000 C   0  0  0  0  0  0  0  0  0  0  0  0
   -1.4418    3.8810    0.0000 N   0  0  0  0  0  0  0  0  0  0  0  0
   -2.5565    4.8847    0.0000 C   0  0  0  0  0  0  0  0  0  0  0  0
   -3.9831    4.4211    0.0000 O   0  0  0  0  0  0  0  0  0  0  0  0
   -2.2447    6.3519    0.0000 C   0  0  0  0  0  0  0  0  0  0  0  0
   -3.3594    7.3556    0.0000 C   0  0  0  0  0  0  0  0  0  0  0  0
   -3.0475    8.8228    0.0000 C   0  0  0  0  0  0  0  0  0  0  0  0
   -4.1622    9.8265    0.0000 C   0  0  0  0  0  0  0  0  0  0  0  0
   -3.8504   11.2937    0.0000 C   0  0  0  0  0  0  0  0  0  0  0  0
   -4.9651   12.2974    0.0000 C   0  0  0  0  0  0  0  0  0  0  0  0
   -4.6532   13.7646    0.0000 C   0  0  0  0  0  0  0  0  0  0  0  0
   -3.2266   14.2282    0.0000 O   0  0  0  0  0  0  0  0  0  0  0  0
   -5.7679   14.7683    0.0000 N   0  0  0  0  0  0  0  0  0  0  0  0
   -5.4561   16.2356    0.0000 O   0  0  0  0  0  0  0  0  0  0  0  0
   -3.1240    1.8037    0.0000 N   0  0  0  0  0  0  0  0  0  0  0  0
   -2.9672    0.3119    0.0000 N   0  0  0  0  0  0  0  0  0  0  0  0
   -1.5000    0.0000    0.0000 C   0  0  0  0  0  0  0  0  0  0  0  0
   -0.7500   -1.2990    0.0000 N   0  0  0  0  0  0  0  0  0  0  0  0
    3.0000   -2.5981    0.0000 C   0  0  0  0  0  0  0  0  0  0  0  0
  1  2  1  0
  2  3  1  0
  3  4  2  0
  4  5  1  0
  5  6  2  0
  6  7  1  0
  7  8  1  0
  8  9  2  0
  9 10  1  0
 10 11  2  0
 11 12  1  0
 12 13  1  0
 13 14  1  0
 14 15  2  0
 14 16  1  0
 16 17  1  0
 17 18  1  0
 18 19  1  0
 19 20  1  0
 20 21  1  0
 21 22  1  0
 22 23  2  0
 22 24  1  0
 24 25  1  0
 12 26  2  0
 26 27  1  0
 27 28  1  0
 28 29  2  0
  7 30  2  0
 30  3  1  0
 29  8  1  0
 28 11  1  0
M  END
>  <molecule_chembl_id>  (1211) 
CHEMBL4777182

>  <canonical_smiles>  (1211) 
COc1cccc(-c2ccc3c(NC(=O)CCCCCCC(=O)NO)n[nH]c3n2)c1

>  <pchembl_value_mean>  (1211) 
8.28

>  <document_chembl_id>  (1211) 
CHEMBL4765277

$$$$

     RDKit          2D

 39 43  0  0  0  0  0  0  0  0999 V2000
   10.7824  -15.8378    0.0000 C   0  0  0  0  0  0  0  0  0  0  0  0
    9.4121  -15.2277    0.0000 C   0  0  0  0  0  0  0  0  0  0  0  0
    9.2553  -13.7359    0.0000 C   0  0  0  0  0  0  0  0  0  0  0  0
   10.4688  -12.8543    0.0000 O   0  0  0  0  0  0  0  0  0  0  0  0
    7.8850  -13.1258    0.0000 C   0  0  0  0  0  0  0  0  0  0  0  0
    7.7282  -11.6340    0.0000 C   0  0  0  0  0  0  0  0  0  0  0  0
    6.3579  -11.0239    0.0000 C   0  0  0  0  0  0  0  0  0  0  0  0
    6.2011   -9.5322    0.0000 C   0  0  0  0  0  0  0  0  0  0  0  0
    4.8308   -8.9221    0.0000 C   0  0  0  0  0  0  0  0  0  0  0  0
    4.6740   -7.4303    0.0000 C   0  0  0  0  0  0  0  0  0  0  0  0
    5.8875   -6.5486    0.0000 N   0  0  0  0  0  0  0  0  0  0  0  0
    7.2578   -7.1587    0.0000 C   0  0  0  0  0  0  0  0  0  0  0  0
    7.4146   -8.6505    0.0000 O   0  0  0  0  0  0  0  0  0  0  0  0
    8.4713   -6.2770    0.0000 C   0  0  0  0  0  0  0  0  0  0  0  0
    9.8417   -6.8871    0.0000 C   0  0  0  0  0  0  0  0  0  0  0  0
   10.3792   -8.2875    0.0000 C   0  0  0  0  0  0  0  0  0  0  0  0
   11.7796   -7.7499    0.0000 C   0  0  0  0  0  0  0  0  0  0  0  0
   11.2420   -6.3496    0.0000 C   0  0  0  0  0  0  0  0  0  0  0  0
   12.3171   -9.1503    0.0000 C   0  0  0  0  0  0  0  0  0  0  0  0
   13.7175   -8.6128    0.0000 N   0  0  0  0  0  0  0  0  0  0  0  0
   15.0878   -9.2229    0.0000 C   0  0  0  0  0  0  0  0  0  0  0  0
   13.1799   -7.2124    0.0000 C   0  0  0  0  0  0  0  0  0  0  0  0
    3.3037   -6.8202    0.0000 C   0  0  0  0  0  0  0  0  0  0  0  0
    2.0046   -7.5702    0.0000 N   0  0  0  0  0  0  0  0  0  0  0  0
    0.8899   -6.5665    0.0000 C   0  0  0  0  0  0  0  0  0  0  0  0
    1.5000   -5.1962    0.0000 C   0  0  0  0  0  0  0  0  0  0  0  0
    0.7500   -3.8971    0.0000 C   0  0  0  0  0  0  0  0  0  0  0  0
    1.5000   -2.5981    0.0000 C   0  0  0  0  0  0  0  0  0  0  0  0
    0.7500   -1.2990    0.0000 C   0  0  0  0  0  0  0  0  0  0  0  0
    1.5000    0.0000    0.0000 C   0  0  0  0  0  0  0  0  0  0  0  0
    0.7500    1.2990    0.0000 C   0  0  0  0  0  0  0  0  0  0  0  0
   -0.7500    1.2990    0.0000 C   0  0  0  0  0  0  0  0  0  0  0  0
   -1.5000    0.0000    0.0000 C   0  0  0  0  0  0  0  0  0  0  0  0
   -0.7500   -1.2990    0.0000 C   0  0  0  0  0  0  0  0  0  0  0  0
   -1.5000   -2.5981    0.0000 N   0  0  0  0  0  0  0  0  0  0  0  0
   -0.7500   -3.8971    0.0000 C   0  0  0  0  0  0  0  0  0  0  0  0
   -1.5000   -5.1962    0.0000 O   0  0  0  0  0  0  0  0  0  0  0  0
   -3.0000   -5.1962    0.0000 C   0  0  0  0  0  0  0  0  0  0  0  0
    2.9918   -5.3529    0.0000 N   0  0  0  0  0  0  0  0  0  0  0  0
  1  2  1  0
  2  3  1  0
  3  4  2  0
  3  5  1  0
  5  6  1  0
  6  7  1  0
  7  8  1  0
  8  9  1  0
  9 10  1  0
 10 11  1  0
 11 12  1  0
 12 13  2  0
 12 14  1  0
 14 15  1  0
 15 16  1  0
 16 17  1  0
 17 18  1  0
 17 19  1  0
 19 20  1  0
 20 21  1  0
 20 22  1  0
 10 23  1  0
 23 24  2  0
 24 25  1  0
 25 26  2  0
 26 27  1  0
 27 28  2  0
 28 29  1  0
 29 30  2  0
 30 31  1  0
 31 32  2  0
 32 33  1  0
 33 34  2  0
 34 35  1  0
 35 36  2  0
 36 37  1  0
 37 38  1  0
 26 39  1  0
 18 15  1  0
 39 23  1  0
 22 17  1  0
 36 27  1  0
 34 29  1  0
M  END
>  <molecule_chembl_id>  (1212) 
CHEMBL4638976

>  <canonical_smiles>  (1212) 
CCC(=O)CCCCCC(NC(=O)CC1CC2(C1)CN(C)C2)c1ncc(-c2cc3ccccc3nc2OC)[nH]1

>  <pchembl_value_mean>  (1212) 
8.29

>  <document_chembl_id>  (1212) 
CHEMBL4622849

$$$$

     RDKit          2D

 27 28  0  0  0  0  0  0  0  0999 V2000
    3.0000    0.0000    0.0000 C   0  0  0  0  0  0  0  0  0  0  0  0
    1.5000    0.0000    0.0000 C   0  0  0  0  0  0  0  0  0  0  0  0
    0.7500   -1.2990    0.0000 C   0  0  0  0  0  0  0  0  0  0  0  0
   -0.7500   -1.2990    0.0000 C   0  0  0  0  0  0  0  0  0  0  0  0
   -1.5000    0.0000    0.0000 C   0  0  0  0  0  0  0  0  0  0  0  0
   -0.7500    1.2990    0.0000 C   0  0  0  0  0  0  0  0  0  0  0  0
   -1.5000    2.5981    0.0000 N   0  0  0  0  0  0  0  0  0  0  0  0
   -0.7500    3.8971    0.0000 C   0  0  0  0  0  0  0  0  0  0  0  0
    0.7500    3.8971    0.0000 O   0  0  0  0  0  0  0  0  0  0  0  0
   -1.5000    5.1962    0.0000 C   0  0  0  0  0  0  0  0  0  0  0  0
   -0.7500    6.4952    0.0000 C   0  0  0  0  0  0  0  0  0  0  0  0
   -1.5000    7.7942    0.0000 C   0  0  0  0  0  0  0  0  0  0  0  0
   -0.7500    9.0933    0.0000 C   0  0  0  0  0  0  0  0  0  0  0  0
   -1.5000   10.3923    0.0000 C   0  0  0  0  0  0  0  0  0  0  0  0
   -0.7500   11.6913    0.0000 C   0  0  0  0  0  0  0  0  0  0  0  0
   -1.5000   12.9904    0.0000 S   0  0  0  0  0  0  0  0  0  0  0  0
   -3.0000    5.1962    0.0000 N   0  0  0  0  0  0  0  0  0  0  0  0
   -3.7500    6.4952    0.0000 C   0  0  0  0  0  0  0  0  0  0  0  0
   -3.0000    7.7942    0.0000 O   0  0  0  0  0  0  0  0  0  0  0  0
   -5.2500    6.4952    0.0000 C   0  0  0  0  0  0  0  0  0  0  0  0
   -6.1317    5.2817    0.0000 C   0  0  0  0  0  0  0  0  0  0  0  0
   -7.5583    5.7452    0.0000 C   0  0  0  0  0  0  0  0  0  0  0  0
   -7.5583    7.2452    0.0000 C   0  0  0  0  0  0  0  0  0  0  0  0
   -8.7718    8.1269    0.0000 O   0  0  0  0  0  0  0  0  0  0  0  0
   -6.1317    7.7087    0.0000 N   0  0  0  0  0  0  0  0  0  0  0  0
   -5.6682    9.1353    0.0000 C   0  0  0  0  0  0  0  0  0  0  0  0
    0.7500    1.2990    0.0000 C   0  0  0  0  0  0  0  0  0  0  0  0
  1  2  1  0
  2  3  2  0
  3  4  1  0
  4  5  2  0
  5  6  1  0
  6  7  1  0
  7  8  1  0
  8  9  2  0
  8 10  1  0
 10 11  1  0
 11 12  1  0
 12 13  1  0
 13 14  1  0
 14 15  1  0
 15 16  1  0
 10 17  1  0
 17 18  1  0
 18 19  2  0
 18 20  1  0
 20 21  1  0
 21 22  1  0
 22 23  1  0
 23 24  2  0
 23 25  1  0
 25 26  1  0
  6 27  2  0
 27  2  1  0
 25 20  1  0
M  END
>  <molecule_chembl_id>  (1213) 
CHEMBL3356924

>  <canonical_smiles>  (1213) 
Cc1cccc(NC(=O)C(CCCCCS)NC(=O)C2CCC(=O)N2C)c1

>  <pchembl_value_mean>  (1213) 
8.3

>  <document_chembl_id>  (1213) 
CHEMBL3352570

$$$$

     RDKit          2D

 32 34  0  0  0  0  0  0  0  0999 V2000
  -10.7086   -9.9084    0.0000 O   0  0  0  0  0  0  0  0  0  0  0  0
   -9.5939  -10.9121    0.0000 C   0  0  0  0  0  0  0  0  0  0  0  0
   -8.1673  -10.4486    0.0000 C   0  0  0  0  0  0  0  0  0  0  0  0
   -7.8555   -8.9814    0.0000 C   0  0  0  0  0  0  0  0  0  0  0  0
   -6.4289   -8.5179    0.0000 C   0  0  0  0  0  0  0  0  0  0  0  0
   -6.1170   -7.0506    0.0000 C   0  0  0  0  0  0  0  0  0  0  0  0
   -4.6904   -6.5871    0.0000 C   0  0  0  0  0  0  0  0  0  0  0  0
   -4.3786   -5.1199    0.0000 C   0  0  0  0  0  0  0  0  0  0  0  0
   -2.9520   -4.6564    0.0000 C   0  0  0  0  0  0  0  0  0  0  0  0
   -1.8373   -5.6601    0.0000 O   0  0  0  0  0  0  0  0  0  0  0  0
   -2.6401   -3.1891    0.0000 N   0  0  0  0  0  0  0  0  0  0  0  0
   -1.2135   -2.7256    0.0000 C   0  0  0  0  0  0  0  0  0  0  0  0
   -0.0000   -3.6073    0.0000 N   0  0  0  0  0  0  0  0  0  0  0  0
    1.2135   -2.7256    0.0000 N   0  0  0  0  0  0  0  0  0  0  0  0
    0.7500   -1.2990    0.0000 C   0  0  0  0  0  0  0  0  0  0  0  0
    1.5000    0.0000    0.0000 C   0  0  0  0  0  0  0  0  0  0  0  0
    0.7500    1.2990    0.0000 C   0  0  0  0  0  0  0  0  0  0  0  0
    1.5000    2.5981    0.0000 C   0  0  0  0  0  0  0  0  0  0  0  0
    3.0000    2.5981    0.0000 C   0  0  0  0  0  0  0  0  0  0  0  0
    3.7500    3.8971    0.0000 C   0  0  0  0  0  0  0  0  0  0  0  0
    3.0000    5.1962    0.0000 C   0  0  0  0  0  0  0  0  0  0  0  0
    1.5000    5.1962    0.0000 C   0  0  0  0  0  0  0  0  0  0  0  0
    0.7500    6.4952    0.0000 C   0  0  0  0  0  0  0  0  0  0  0  0
    0.0000    7.7942    0.0000 F   0  0  0  0  0  0  0  0  0  0  0  0
    2.0490    7.2452    0.0000 F   0  0  0  0  0  0  0  0  0  0  0  0
   -0.5490    5.7452    0.0000 F   0  0  0  0  0  0  0  0  0  0  0  0
    0.7500    3.8971    0.0000 C   0  0  0  0  0  0  0  0  0  0  0  0
   -0.7500    1.2990    0.0000 C   0  0  0  0  0  0  0  0  0  0  0  0
   -1.5000    0.0000    0.0000 C   0  0  0  0  0  0  0  0  0  0  0  0
   -0.7500   -1.2990    0.0000 C   0  0  0  0  0  0  0  0  0  0  0  0
   -9.9058  -12.3794    0.0000 N   0  0  0  0  0  0  0  0  0  0  0  0
  -11.3324  -12.8429    0.0000 O   0  0  0  0  0  0  0  0  0  0  0  0
  1  2  2  0
  2  3  1  0
  3  4  1  0
  4  5  1  0
  5  6  1  0
  6  7  1  0
  7  8  1  0
  8  9  1  0
  9 10  2  0
  9 11  1  0
 11 12  1  0
 12 13  2  0
 13 14  1  0
 14 15  1  0
 15 16  2  0
 16 17  1  0
 17 18  1  0
 18 19  2  0
 19 20  1  0
 20 21  2  0
 21 22  1  0
 22 23  1  0
 23 24  1  0
 23 25  1  0
 23 26  1  0
 22 27  2  0
 17 28  2  0
 28 29  1  0
 29 30  2  0
  2 31  1  0
 31 32  1  0
 30 12  1  0
 30 15  1  0
 27 18  1  0
M  END
>  <molecule_chembl_id>  (1214) 
CHEMBL4782066

>  <canonical_smiles>  (1214) 
O=C(CCCCCCC(=O)Nc1n[nH]c2cc(-c3cccc(C(F)(F)F)c3)ccc12)NO

>  <pchembl_value_mean>  (1214) 
8.3

>  <document_chembl_id>  (1214) 
CHEMBL4765277

$$$$

     RDKit          2D

 38 41  0  0  0  0  0  0  0  0999 V2000
    5.7990  -13.7404    0.0000 C   0  0  0  0  0  0  0  0  0  0  0  0
    6.5490  -12.4413    0.0000 C   0  0  0  0  0  0  0  0  0  0  0  0
    5.7990  -11.1423    0.0000 C   0  0  0  0  0  0  0  0  0  0  0  0
    4.2990  -11.1423    0.0000 O   0  0  0  0  0  0  0  0  0  0  0  0
    6.5490   -9.8433    0.0000 C   0  0  0  0  0  0  0  0  0  0  0  0
    5.7990   -8.5442    0.0000 C   0  0  0  0  0  0  0  0  0  0  0  0
    6.5490   -7.2452    0.0000 C   0  0  0  0  0  0  0  0  0  0  0  0
    5.7990   -5.9462    0.0000 C   0  0  0  0  0  0  0  0  0  0  0  0
    6.5490   -4.6471    0.0000 C   0  0  0  0  0  0  0  0  0  0  0  0
    5.7990   -3.3481    0.0000 C   0  0  0  0  0  0  0  0  0  0  0  0
    4.2990   -3.3481    0.0000 N   0  0  0  0  0  0  0  0  0  0  0  0
    3.5490   -2.0490    0.0000 C   0  0  0  0  0  0  0  0  0  0  0  0
    4.2990   -0.7500    0.0000 O   0  0  0  0  0  0  0  0  0  0  0  0
    2.0490   -2.0490    0.0000 C   0  0  0  0  0  0  0  0  0  0  0  0
    0.7500   -2.7990    0.0000 C   0  0  0  0  0  0  0  0  0  0  0  0
    0.7500   -1.2990    0.0000 C   0  0  0  0  0  0  0  0  0  0  0  0
    1.5000    0.0000    0.0000 C   0  0  0  0  0  0  0  0  0  0  0  0
    0.7500    1.2990    0.0000 C   0  0  0  0  0  0  0  0  0  0  0  0
   -0.7500    1.2990    0.0000 N   0  0  0  0  0  0  0  0  0  0  0  0
   -1.5000    2.5981    0.0000 C   0  0  0  0  0  0  0  0  0  0  0  0
   -0.7500    3.8971    0.0000 C   0  0  0  0  0  0  0  0  0  0  0  0
   -1.5000    0.0000    0.0000 C   0  0  0  0  0  0  0  0  0  0  0  0
   -0.7500   -1.2990    0.0000 C   0  0  0  0  0  0  0  0  0  0  0  0
    6.5490   -2.0490    0.0000 C   0  0  0  0  0  0  0  0  0  0  0  0
    5.9389   -0.6787    0.0000 N   0  0  0  0  0  0  0  0  0  0  0  0
    7.0537    0.3250    0.0000 C   0  0  0  0  0  0  0  0  0  0  0  0
    6.8969    1.8168    0.0000 C   0  0  0  0  0  0  0  0  0  0  0  0
    8.1104    2.6984    0.0000 C   0  0  0  0  0  0  0  0  0  0  0  0
    7.9536    4.1902    0.0000 C   0  0  0  0  0  0  0  0  0  0  0  0
    6.5833    4.8003    0.0000 C   0  0  0  0  0  0  0  0  0  0  0  0
    6.4265    6.2921    0.0000 F   0  0  0  0  0  0  0  0  0  0  0  0
    5.3697    3.9186    0.0000 C   0  0  0  0  0  0  0  0  0  0  0  0
    5.5265    2.4269    0.0000 C   0  0  0  0  0  0  0  0  0  0  0  0
    8.3527   -0.4250    0.0000 N   0  0  0  0  0  0  0  0  0  0  0  0
    8.0408   -1.8922    0.0000 C   0  0  0  0  0  0  0  0  0  0  0  0
    9.0445   -3.0070    0.0000 C   0  0  0  0  0  0  0  0  0  0  0  0
   10.5117   -2.6951    0.0000 N   0  0  0  0  0  0  0  0  0  0  0  0
    8.5810   -4.4335    0.0000 O   0  0  0  0  0  0  0  0  0  0  0  0
  1  2  1  0
  2  3  1  0
  3  4  2  0
  3  5  1  0
  5  6  1  0
  6  7  1  0
  7  8  1  0
  8  9  1  0
  9 10  1  0
 10 11  1  0
 11 12  1  0
 12 13  2  0
 12 14  1  0
 14 15  1  0
 15 16  1  0
 16 17  1  0
 17 18  1  0
 18 19  1  0
 19 20  1  0
 20 21  1  0
 19 22  1  0
 22 23  1  0
 10 24  1  0
 24 25  1  0
 25 26  1  0
 26 27  1  0
 27 28  2  0
 28 29  1  0
 29 30  2  0
 30 31  1  0
 30 32  1  0
 32 33  2  0
 26 34  2  0
 34 35  1  0
 35 36  1  0
 36 37  1  0
 36 38  2  0
 16 14  1  0
 35 24  2  0
 23 16  1  0
 33 27  1  0
M  END
>  <molecule_chembl_id>  (1215) 
CHEMBL4785376

>  <canonical_smiles>  (1215) 
CCC(=O)CCCCCC(NC(=O)C1CC12CCN(CC)CC2)c1[nH]c(-c2ccc(F)cc2)nc1C(N)=O

>  <pchembl_value_mean>  (1215) 
8.3

>  <document_chembl_id>  (1215) 
CHEMBL4665726

$$$$

     RDKit          2D

 23 23  0  0  0  0  0  0  0  0999 V2000
    3.7500   -1.2990    0.0000 C   0  0  0  0  0  0  0  0  0  0  0  0
    3.0000    0.0000    0.0000 O   0  0  0  0  0  0  0  0  0  0  0  0
    1.5000    0.0000    0.0000 C   0  0  0  0  0  0  0  0  0  0  0  0
    0.7500   -1.2990    0.0000 C   0  0  0  0  0  0  0  0  0  0  0  0
   -0.7500   -1.2990    0.0000 C   0  0  0  0  0  0  0  0  0  0  0  0
   -1.5000    0.0000    0.0000 C   0  0  0  0  0  0  0  0  0  0  0  0
   -3.0000    0.0000    0.0000 Br  0  0  0  0  0  0  0  0  0  0  0  0
   -0.7500    1.2990    0.0000 C   0  0  0  0  0  0  0  0  0  0  0  0
   -1.5000    2.5981    0.0000 C   0  0  0  0  0  0  0  0  0  0  0  0
   -0.7500    3.8971    0.0000 N   0  0  0  0  0  0  0  0  0  0  0  0
   -1.5000    5.1962    0.0000 N   0  0  0  0  0  0  0  0  0  0  0  0
   -0.7500    6.4952    0.0000 C   0  0  0  0  0  0  0  0  0  0  0  0
    0.7500    6.4952    0.0000 O   0  0  0  0  0  0  0  0  0  0  0  0
   -1.5000    7.7942    0.0000 C   0  0  0  0  0  0  0  0  0  0  0  0
   -0.7500    9.0933    0.0000 C   0  0  0  0  0  0  0  0  0  0  0  0
   -1.5000   10.3923    0.0000 C   0  0  0  0  0  0  0  0  0  0  0  0
   -0.7500   11.6913    0.0000 C   0  0  0  0  0  0  0  0  0  0  0  0
   -1.5000   12.9904    0.0000 C   0  0  0  0  0  0  0  0  0  0  0  0
   -0.7500   14.2894    0.0000 C   0  0  0  0  0  0  0  0  0  0  0  0
    0.7500   14.2894    0.0000 O   0  0  0  0  0  0  0  0  0  0  0  0
   -1.5000   15.5885    0.0000 N   0  0  0  0  0  0  0  0  0  0  0  0
   -0.7500   16.8875    0.0000 O   0  0  0  0  0  0  0  0  0  0  0  0
    0.7500    1.2990    0.0000 C   0  0  0  0  0  0  0  0  0  0  0  0
  1  2  1  0
  2  3  1  0
  3  4  2  0
  4  5  1  0
  5  6  2  0
  6  7  1  0
  6  8  1  0
  8  9  1  0
  9 10  2  3
 10 11  1  0
 11 12  1  0
 12 13  2  0
 12 14  1  0
 14 15  1  0
 15 16  1  0
 16 17  1  0
 17 18  1  0
 18 19  1  0
 19 20  2  0
 19 21  1  0
 21 22  1  0
  8 23  2  0
 23  3  1  0
M  END
>  <molecule_chembl_id>  (1216) 
CHEMBL3759059

>  <canonical_smiles>  (1216) 
COc1ccc(Br)c(C=NNC(=O)CCCCCC(=O)NO)c1

>  <pchembl_value_mean>  (1216) 
8.3

>  <document_chembl_id>  (1216) 
CHEMBL3758132

$$$$

     RDKit          2D

 31 34  0  0  0  0  0  0  0  0999 V2000
    7.5000   -2.5981    0.0000 C   0  0  0  0  0  0  0  0  0  0  0  0
    6.0000   -2.5981    0.0000 N   0  0  0  0  0  0  0  0  0  0  0  0
    5.2500   -3.8971    0.0000 C   0  0  0  0  0  0  0  0  0  0  0  0
    5.2500   -1.2990    0.0000 C   0  0  0  0  0  0  0  0  0  0  0  0
    3.7500   -1.2990    0.0000 C   0  0  0  0  0  0  0  0  0  0  0  0
    3.0000    0.0000    0.0000 N   0  0  0  0  0  0  0  0  0  0  0  0
    1.5000    0.0000    0.0000 C   0  0  0  0  0  0  0  0  0  0  0  0
    0.7500   -1.2990    0.0000 C   0  0  0  0  0  0  0  0  0  0  0  0
   -0.7500   -1.2990    0.0000 C   0  0  0  0  0  0  0  0  0  0  0  0
   -1.5000    0.0000    0.0000 C   0  0  0  0  0  0  0  0  0  0  0  0
   -3.0000    0.0000    0.0000 C   0  0  0  0  0  0  0  0  0  0  0  0
   -3.7500    1.2990    0.0000 C   0  0  0  0  0  0  0  0  0  0  0  0
   -5.2500    1.2990    0.0000 C   0  0  0  0  0  0  0  0  0  0  0  0
   -6.0000    0.0000    0.0000 O   0  0  0  0  0  0  0  0  0  0  0  0
   -6.0000    2.5981    0.0000 N   0  0  0  0  0  0  0  0  0  0  0  0
   -7.5000    2.5981    0.0000 C   0  0  0  0  0  0  0  0  0  0  0  0
   -8.2500    3.8971    0.0000 C   0  0  0  0  0  0  0  0  0  0  0  0
   -9.7500    3.8971    0.0000 C   0  0  0  0  0  0  0  0  0  0  0  0
  -10.5000    5.1962    0.0000 C   0  0  0  0  0  0  0  0  0  0  0  0
  -11.9918    5.3529    0.0000 C   0  0  0  0  0  0  0  0  0  0  0  0
  -12.3037    6.8202    0.0000 C   0  0  0  0  0  0  0  0  0  0  0  0
  -11.0046    7.5702    0.0000 C   0  0  0  0  0  0  0  0  0  0  0  0
   -9.8899    6.5665    0.0000 S   0  0  0  0  0  0  0  0  0  0  0  0
  -10.5000    2.5981    0.0000 C   0  0  0  0  0  0  0  0  0  0  0  0
   -9.7500    1.2990    0.0000 C   0  0  0  0  0  0  0  0  0  0  0  0
   -8.2500    1.2990    0.0000 C   0  0  0  0  0  0  0  0  0  0  0  0
   -7.5000    0.0000    0.0000 N   0  0  0  0  0  0  0  0  0  0  0  0
   -3.0000    2.5981    0.0000 N   0  0  0  0  0  0  0  0  0  0  0  0
   -1.5000    2.5981    0.0000 C   0  0  0  0  0  0  0  0  0  0  0  0
   -0.7500    1.2990    0.0000 C   0  0  0  0  0  0  0  0  0  0  0  0
    0.7500    1.2990    0.0000 C   0  0  0  0  0  0  0  0  0  0  0  0
  1  2  1  0
  2  3  1  0
  2  4  1  0
  4  5  1  0
  5  6  1  0
  6  7  1  0
  7  8  2  0
  8  9  1  0
  9 10  2  0
 10 11  1  0
 11 12  2  0
 12 13  1  0
 13 14  2  0
 13 15  1  0
 15 16  1  0
 16 17  2  0
 17 18  1  0
 18 19  1  0
 19 20  2  0
 20 21  1  0
 21 22  2  0
 22 23  1  0
 18 24  2  0
 24 25  1  0
 25 26  2  0
 26 27  1  0
 12 28  1  0
 28 29  2  0
 29 30  1  0
 30 31  2  0
 31  7  1  0
 30 10  1  0
 26 16  1  0
 23 19  1  0
M  END
>  <molecule_chembl_id>  (1217) 
CHEMBL4856052

>  <canonical_smiles>  (1217) 
CN(C)CCNc1ccc2cc(C(=O)Nc3cc(-c4cccs4)ccc3N)ncc2c1

>  <pchembl_value_mean>  (1217) 
8.3

>  <document_chembl_id>  (1217) 
CHEMBL4828773

$$$$

     RDKit          2D

 34 38  0  0  0  0  0  0  0  0999 V2000
    3.7500   -3.8971    0.0000 N   0  0  0  0  0  0  0  0  0  0  0  0
    3.0000   -5.1962    0.0000 C   0  0  0  0  0  0  0  0  0  0  0  0
    3.7500   -6.4952    0.0000 C   0  0  0  0  0  0  0  0  0  0  0  0
    3.0000   -7.7942    0.0000 C   0  0  0  0  0  0  0  0  0  0  0  0
    1.5000   -7.7942    0.0000 C   0  0  0  0  0  0  0  0  0  0  0  0
    0.7500   -9.0933    0.0000 C   0  0  0  0  0  0  0  0  0  0  0  0
    1.3601  -10.4636    0.0000 C   0  0  0  0  0  0  0  0  0  0  0  0
    0.2454  -11.4673    0.0000 C   0  0  0  0  0  0  0  0  0  0  0  0
   -1.0537  -10.7173    0.0000 C   0  0  0  0  0  0  0  0  0  0  0  0
   -0.7418   -9.2501    0.0000 S   0  0  0  0  0  0  0  0  0  0  0  0
    0.7500   -6.4952    0.0000 C   0  0  0  0  0  0  0  0  0  0  0  0
    1.5000   -5.1962    0.0000 C   0  0  0  0  0  0  0  0  0  0  0  0
    0.7500   -3.8971    0.0000 N   0  0  0  0  0  0  0  0  0  0  0  0
    1.5000   -2.5981    0.0000 C   0  0  0  0  0  0  0  0  0  0  0  0
    3.0000   -2.5981    0.0000 O   0  0  0  0  0  0  0  0  0  0  0  0
    0.7500   -1.2990    0.0000 C   0  0  0  0  0  0  0  0  0  0  0  0
    1.5000    0.0000    0.0000 C   0  0  0  0  0  0  0  0  0  0  0  0
    0.7500    1.2990    0.0000 C   0  0  0  0  0  0  0  0  0  0  0  0
   -0.7500    1.2990    0.0000 C   0  0  0  0  0  0  0  0  0  0  0  0
   -1.5000    0.0000    0.0000 C   0  0  0  0  0  0  0  0  0  0  0  0
   -0.7500   -1.2990    0.0000 C   0  0  0  0  0  0  0  0  0  0  0  0
   -2.9672    0.3119    0.0000 C   0  0  0  0  0  0  0  0  0  0  0  0
   -3.1240    1.8037    0.0000 C   0  0  0  0  0  0  0  0  0  0  0  0
   -4.4231    2.5537    0.0000 O   0  0  0  0  0  0  0  0  0  0  0  0
   -1.7537    2.4138    0.0000 N   0  0  0  0  0  0  0  0  0  0  0  0
   -1.4418    3.8810    0.0000 C   0  0  0  0  0  0  0  0  0  0  0  0
   -0.0152    4.3445    0.0000 C   0  0  0  0  0  0  0  0  0  0  0  0
    0.2966    5.8117    0.0000 C   0  0  0  0  0  0  0  0  0  0  0  0
    1.7232    6.2752    0.0000 N   0  0  0  0  0  0  0  0  0  0  0  0
    2.8379    5.2716    0.0000 C   0  0  0  0  0  0  0  0  0  0  0  0
    4.2645    5.7351    0.0000 C   0  0  0  0  0  0  0  0  0  0  0  0
    4.5764    7.2023    0.0000 O   0  0  0  0  0  0  0  0  0  0  0  0
    3.4617    8.2060    0.0000 C   0  0  0  0  0  0  0  0  0  0  0  0
    2.0351    7.7425    0.0000 C   0  0  0  0  0  0  0  0  0  0  0  0
  1  2  1  0
  2  3  2  0
  3  4  1  0
  4  5  2  0
  5  6  1  0
  6  7  2  0
  7  8  1  0
  8  9  2  0
  9 10  1  0
  5 11  1  0
 11 12  2  0
 12 13  1  0
 13 14  1  0
 14 15  2  0
 14 16  1  0
 16 17  2  0
 17 18  1  0
 18 19  2  0
 19 20  1  0
 20 21  2  0
 20 22  1  0
 22 23  1  0
 23 24  2  0
 23 25  1  0
 25 26  1  0
 26 27  1  0
 27 28  1  0
 28 29  1  0
 29 30  1  0
 30 31  1  0
 31 32  1  0
 32 33  1  0
 33 34  1  0
 12  2  1  0
 21 16  1  0
 34 29  1  0
 10  6  1  0
 25 19  1  0
M  END
>  <molecule_chembl_id>  (1218) 
CHEMBL4856764

>  <canonical_smiles>  (1218) 
Nc1ccc(-c2cccs2)cc1NC(=O)c1ccc2c(c1)CC(=O)N2CCCN1CCOCC1

>  <pchembl_value_mean>  (1218) 
8.3

>  <document_chembl_id>  (1218) 
CHEMBL4828773

$$$$

     RDKit          2D

 41 43  0  0  0  0  0  0  0  0999 V2000
    6.8839   -1.2990    0.0000 C   0  0  0  0  0  0  0  0  0  0  0  0
    5.3839   -1.2990    0.0000 C   0  0  0  0  0  0  0  0  0  0  0  0
    4.6339   -2.5981    0.0000 C   0  0  0  0  0  0  0  0  0  0  0  0
    4.6339    0.0000    0.0000 C   0  0  0  0  0  0  0  0  0  0  0  0
    3.1339    0.0000    0.0000 C   0  0  0  0  0  0  0  0  0  0  0  0
    2.7750    1.4564    0.0000 C   0  0  0  0  0  0  0  0  0  0  0  0
    1.7803    2.5792    0.0000 C   0  0  0  0  0  0  0  0  0  0  0  0
    2.6324    3.8137    0.0000 O   0  0  0  0  0  0  0  0  0  0  0  0
    0.3778    3.1111    0.0000 N   0  0  0  0  0  0  0  0  0  0  0  0
   -1.1113    2.9303    0.0000 C   0  0  0  0  0  0  0  0  0  0  0  0
   -1.6432    4.3328    0.0000 C   0  0  0  0  0  0  0  0  0  0  0  0
   -2.3458    2.0782    0.0000 C   0  0  0  0  0  0  0  0  0  0  0  0
   -3.4686    3.0729    0.0000 O   0  0  0  0  0  0  0  0  0  0  0  0
   -3.0429    0.7500    0.0000 N   0  0  0  0  0  0  0  0  0  0  0  0
   -3.0429   -0.7500    0.0000 C   0  0  0  0  0  0  0  0  0  0  0  0
   -4.4993   -1.1090    0.0000 C   0  0  0  0  0  0  0  0  0  0  0  0
   -5.5384   -0.0272    0.0000 C   0  0  0  0  0  0  0  0  0  0  0  0
   -6.9948   -0.3861    0.0000 C   0  0  0  0  0  0  0  0  0  0  0  0
   -8.0339    0.6957    0.0000 C   0  0  0  0  0  0  0  0  0  0  0  0
   -9.4903    0.3367    0.0000 C   0  0  0  0  0  0  0  0  0  0  0  0
  -10.5294    1.4185    0.0000 C   0  0  0  0  0  0  0  0  0  0  0  0
  -10.1120    2.8593    0.0000 O   0  0  0  0  0  0  0  0  0  0  0  0
  -11.9858    1.0595    0.0000 N   0  0  0  0  0  0  0  0  0  0  0  0
  -13.0249    2.1413    0.0000 O   0  0  0  0  0  0  0  0  0  0  0  0
   -2.3458   -2.0782    0.0000 C   0  0  0  0  0  0  0  0  0  0  0  0
   -3.4686   -3.0729    0.0000 O   0  0  0  0  0  0  0  0  0  0  0  0
   -1.1113   -2.9303    0.0000 N   0  0  0  0  0  0  0  0  0  0  0  0
    0.3778   -3.1111    0.0000 C   0  0  0  0  0  0  0  0  0  0  0  0
    0.5586   -4.6001    0.0000 C   0  0  0  0  0  0  0  0  0  0  0  0
   -0.6406   -5.5013    0.0000 C   0  0  0  0  0  0  0  0  0  0  0  0
   -2.0745   -5.0608    0.0000 C   0  0  0  0  0  0  0  0  0  0  0  0
   -2.9365   -6.2884    0.0000 N   0  0  0  0  0  0  0  0  0  0  0  0
   -2.0354   -7.4875    0.0000 C   0  0  0  0  0  0  0  0  0  0  0  0
   -2.3236   -8.9596    0.0000 C   0  0  0  0  0  0  0  0  0  0  0  0
   -1.1928   -9.9452    0.0000 C   0  0  0  0  0  0  0  0  0  0  0  0
    0.2261   -9.4587    0.0000 C   0  0  0  0  0  0  0  0  0  0  0  0
    0.5143   -7.9867    0.0000 C   0  0  0  0  0  0  0  0  0  0  0  0
   -0.6164   -7.0011    0.0000 C   0  0  0  0  0  0  0  0  0  0  0  0
    1.7803   -2.5792    0.0000 C   0  0  0  0  0  0  0  0  0  0  0  0
    2.6324   -3.8137    0.0000 O   0  0  0  0  0  0  0  0  0  0  0  0
    2.7750   -1.4564    0.0000 N   0  0  0  0  0  0  0  0  0  0  0  0
  1  2  1  0
  2  3  1  0
  2  4  1  0
  4  5  1  0
  5  6  1  0
  6  7  1  0
  7  8  2  0
  7  9  1  0
  9 10  1  0
 10 11  1  0
 10 12  1  0
 12 13  2  0
 12 14  1  0
 14 15  1  0
 15 16  1  0
 16 17  1  0
 17 18  1  0
 18 19  1  0
 19 20  1  0
 20 21  1  0
 21 22  2  0
 21 23  1  0
 23 24  1  0
 15 25  1  0
 25 26  2  0
 25 27  1  0
 27 28  1  0
 28 29  1  0
 29 30  1  0
 30 31  2  0
 31 32  1  0
 32 33  1  0
 33 34  2  0
 34 35  1  0
 35 36  2  0
 36 37  1  0
 37 38  2  0
 28 39  1  0
 39 40  2  0
 39 41  1  0
 41  5  1  0
 38 30  1  0
 38 33  1  0
M  END
>  <molecule_chembl_id>  (1219) 
CHEMBL585939

>  <canonical_smiles>  (1219) 
CC(C)CC1CC(=O)NC(C)C(=O)NC(CCCCCC(=O)NO)C(=O)NC(Cc2c[nH]c3ccccc23)C(=O)N1

>  <pchembl_value_mean>  (1219) 
8.3

>  <document_chembl_id>  (1219) 
CHEMBL4052703

$$$$

     RDKit          2D

 33 37  0  0  0  0  0  0  0  0999 V2000
    3.7500   -3.8971    0.0000 N   0  0  0  0  0  0  0  0  0  0  0  0
    3.0000   -5.1962    0.0000 C   0  0  0  0  0  0  0  0  0  0  0  0
    3.7500   -6.4952    0.0000 C   0  0  0  0  0  0  0  0  0  0  0  0
    3.0000   -7.7942    0.0000 C   0  0  0  0  0  0  0  0  0  0  0  0
    1.5000   -7.7942    0.0000 C   0  0  0  0  0  0  0  0  0  0  0  0
    0.7500   -9.0933    0.0000 C   0  0  0  0  0  0  0  0  0  0  0  0
    1.3601  -10.4636    0.0000 C   0  0  0  0  0  0  0  0  0  0  0  0
    0.2454  -11.4673    0.0000 C   0  0  0  0  0  0  0  0  0  0  0  0
   -1.0537  -10.7173    0.0000 C   0  0  0  0  0  0  0  0  0  0  0  0
   -0.7418   -9.2501    0.0000 S   0  0  0  0  0  0  0  0  0  0  0  0
    0.7500   -6.4952    0.0000 C   0  0  0  0  0  0  0  0  0  0  0  0
    1.5000   -5.1962    0.0000 C   0  0  0  0  0  0  0  0  0  0  0  0
    0.7500   -3.8971    0.0000 N   0  0  0  0  0  0  0  0  0  0  0  0
    1.5000   -2.5981    0.0000 C   0  0  0  0  0  0  0  0  0  0  0  0
    3.0000   -2.5981    0.0000 O   0  0  0  0  0  0  0  0  0  0  0  0
    0.7500   -1.2990    0.0000 C   0  0  0  0  0  0  0  0  0  0  0  0
    1.5000    0.0000    0.0000 C   0  0  0  0  0  0  0  0  0  0  0  0
    0.7500    1.2990    0.0000 C   0  0  0  0  0  0  0  0  0  0  0  0
   -0.7500    1.2990    0.0000 C   0  0  0  0  0  0  0  0  0  0  0  0
   -1.5000    0.0000    0.0000 C   0  0  0  0  0  0  0  0  0  0  0  0
   -0.7500   -1.2990    0.0000 C   0  0  0  0  0  0  0  0  0  0  0  0
   -2.9672    0.3119    0.0000 C   0  0  0  0  0  0  0  0  0  0  0  0
   -3.1240    1.8037    0.0000 C   0  0  0  0  0  0  0  0  0  0  0  0
   -4.4231    2.5537    0.0000 O   0  0  0  0  0  0  0  0  0  0  0  0
   -1.7537    2.4138    0.0000 N   0  0  0  0  0  0  0  0  0  0  0  0
   -1.4418    3.8810    0.0000 C   0  0  0  0  0  0  0  0  0  0  0  0
   -0.0152    4.3445    0.0000 C   0  0  0  0  0  0  0  0  0  0  0  0
    0.2966    5.8117    0.0000 N   0  0  0  0  0  0  0  0  0  0  0  0
    1.7232    6.2752    0.0000 C   0  0  0  0  0  0  0  0  0  0  0  0
    2.0351    7.7425    0.0000 C   0  0  0  0  0  0  0  0  0  0  0  0
    0.9204    8.7462    0.0000 O   0  0  0  0  0  0  0  0  0  0  0  0
   -0.5062    8.2826    0.0000 C   0  0  0  0  0  0  0  0  0  0  0  0
   -0.8181    6.8154    0.0000 C   0  0  0  0  0  0  0  0  0  0  0  0
  1  2  1  0
  2  3  2  0
  3  4  1  0
  4  5  2  0
  5  6  1  0
  6  7  2  0
  7  8  1  0
  8  9  2  0
  9 10  1  0
  5 11  1  0
 11 12  2  0
 12 13  1  0
 13 14  1  0
 14 15  2  0
 14 16  1  0
 16 17  2  0
 17 18  1  0
 18 19  2  0
 19 20  1  0
 20 21  2  0
 20 22  1  0
 22 23  1  0
 23 24  2  0
 23 25  1  0
 25 26  1  0
 26 27  1  0
 27 28  1  0
 28 29  1  0
 29 30  1  0
 30 31  1  0
 31 32  1  0
 32 33  1  0
 12  2  1  0
 21 16  1  0
 33 28  1  0
 10  6  1  0
 25 19  1  0
M  END
>  <molecule_chembl_id>  (1220) 
CHEMBL4848938

>  <canonical_smiles>  (1220) 
Nc1ccc(-c2cccs2)cc1NC(=O)c1ccc2c(c1)CC(=O)N2CCN1CCOCC1

>  <pchembl_value_mean>  (1220) 
8.3

>  <document_chembl_id>  (1220) 
CHEMBL4828773

$$$$

     RDKit          2D

 32 34  0  0  0  0  0  0  0  0999 V2000
    6.0000   -5.1962    0.0000 C   0  0  0  0  0  0  0  0  0  0  0  0
    5.2500   -3.8971    0.0000 O   0  0  0  0  0  0  0  0  0  0  0  0
    3.7500   -3.8971    0.0000 C   0  0  0  0  0  0  0  0  0  0  0  0
    3.0000   -5.1962    0.0000 C   0  0  0  0  0  0  0  0  0  0  0  0
    1.5000   -5.1962    0.0000 C   0  0  0  0  0  0  0  0  0  0  0  0
    0.7500   -6.4952    0.0000 O   0  0  0  0  0  0  0  0  0  0  0  0
   -0.7500   -6.4952    0.0000 C   0  0  0  0  0  0  0  0  0  0  0  0
    0.7500   -3.8971    0.0000 C   0  0  0  0  0  0  0  0  0  0  0  0
    1.5000   -2.5981    0.0000 C   0  0  0  0  0  0  0  0  0  0  0  0
    0.7500   -1.2990    0.0000 C   0  0  0  0  0  0  0  0  0  0  0  0
    1.5000    0.0000    0.0000 C   0  0  0  0  0  0  0  0  0  0  0  0
    0.7500    1.2990    0.0000 C   0  0  0  0  0  0  0  0  0  0  0  0
   -0.7500    1.2990    0.0000 C   0  0  0  0  0  0  0  0  0  0  0  0
   -1.7537    2.4138    0.0000 C   0  0  0  0  0  0  0  0  0  0  0  0
   -1.4418    3.8810    0.0000 N   0  0  0  0  0  0  0  0  0  0  0  0
   -2.5565    4.8847    0.0000 C   0  0  0  0  0  0  0  0  0  0  0  0
   -3.9831    4.4211    0.0000 O   0  0  0  0  0  0  0  0  0  0  0  0
   -2.2447    6.3519    0.0000 C   0  0  0  0  0  0  0  0  0  0  0  0
   -3.3594    7.3556    0.0000 C   0  0  0  0  0  0  0  0  0  0  0  0
   -3.0475    8.8228    0.0000 C   0  0  0  0  0  0  0  0  0  0  0  0
   -4.1622    9.8265    0.0000 C   0  0  0  0  0  0  0  0  0  0  0  0
   -3.8504   11.2937    0.0000 C   0  0  0  0  0  0  0  0  0  0  0  0
   -4.9651   12.2974    0.0000 C   0  0  0  0  0  0  0  0  0  0  0  0
   -4.6532   13.7646    0.0000 C   0  0  0  0  0  0  0  0  0  0  0  0
   -3.2266   14.2282    0.0000 O   0  0  0  0  0  0  0  0  0  0  0  0
   -5.7679   14.7683    0.0000 N   0  0  0  0  0  0  0  0  0  0  0  0
   -5.4561   16.2356    0.0000 O   0  0  0  0  0  0  0  0  0  0  0  0
   -3.1240    1.8037    0.0000 N   0  0  0  0  0  0  0  0  0  0  0  0
   -2.9672    0.3119    0.0000 N   0  0  0  0  0  0  0  0  0  0  0  0
   -1.5000    0.0000    0.0000 C   0  0  0  0  0  0  0  0  0  0  0  0
   -0.7500   -1.2990    0.0000 C   0  0  0  0  0  0  0  0  0  0  0  0
    3.0000   -2.5981    0.0000 C   0  0  0  0  0  0  0  0  0  0  0  0
  1  2  1  0
  2  3  1  0
  3  4  2  0
  4  5  1  0
  5  6  1  0
  6  7  1  0
  5  8  2  0
  8  9  1  0
  9 10  1  0
 10 11  2  0
 11 12  1  0
 12 13  2  0
 13 14  1  0
 14 15  1  0
 15 16  1  0
 16 17  2  0
 16 18  1  0
 18 19  1  0
 19 20  1  0
 20 21  1  0
 21 22  1  0
 22 23  1  0
 23 24  1  0
 24 25  2  0
 24 26  1  0
 26 27  1  0
 14 28  2  0
 28 29  1  0
 29 30  1  0
 30 31  2  0
  9 32  2  0
 32  3  1  0
 31 10  1  0
 30 13  1  0
M  END
>  <molecule_chembl_id>  (1221) 
CHEMBL4788942

>  <canonical_smiles>  (1221) 
COc1cc(OC)cc(-c2ccc3c(NC(=O)CCCCCCC(=O)NO)n[nH]c3c2)c1

>  <pchembl_value_mean>  (1221) 
8.32

>  <document_chembl_id>  (1221) 
CHEMBL4765277

$$$$

     RDKit          2D

 39 43  0  0  0  0  0  0  0  0999 V2000
   10.7824  -15.8378    0.0000 C   0  0  0  0  0  0  0  0  0  0  0  0
    9.4121  -15.2277    0.0000 C   0  0  0  0  0  0  0  0  0  0  0  0
    9.2553  -13.7359    0.0000 C   0  0  0  0  0  0  0  0  0  0  0  0
   10.4688  -12.8543    0.0000 O   0  0  0  0  0  0  0  0  0  0  0  0
    7.8850  -13.1258    0.0000 C   0  0  0  0  0  0  0  0  0  0  0  0
    7.7282  -11.6340    0.0000 C   0  0  0  0  0  0  0  0  0  0  0  0
    6.3579  -11.0239    0.0000 C   0  0  0  0  0  0  0  0  0  0  0  0
    6.2011   -9.5322    0.0000 C   0  0  0  0  0  0  0  0  0  0  0  0
    4.8308   -8.9221    0.0000 C   0  0  0  0  0  0  0  0  0  0  0  0
    4.6740   -7.4303    0.0000 C   0  0  0  0  0  0  0  0  0  0  0  0
    5.8875   -6.5486    0.0000 N   0  0  0  0  0  0  0  0  0  0  0  0
    7.2578   -7.1587    0.0000 C   0  0  0  0  0  0  0  0  0  0  0  0
    7.4146   -8.6505    0.0000 O   0  0  0  0  0  0  0  0  0  0  0  0
    8.4713   -6.2770    0.0000 C   0  0  0  0  0  0  0  0  0  0  0  0
    9.0814   -4.9067    0.0000 C   0  0  0  0  0  0  0  0  0  0  0  0
    9.9631   -6.1202    0.0000 C   0  0  0  0  0  0  0  0  0  0  0  0
   10.1199   -7.6120    0.0000 C   0  0  0  0  0  0  0  0  0  0  0  0
   11.4902   -8.2221    0.0000 C   0  0  0  0  0  0  0  0  0  0  0  0
   12.7038   -7.3404    0.0000 N   0  0  0  0  0  0  0  0  0  0  0  0
   14.0741   -7.9505    0.0000 C   0  0  0  0  0  0  0  0  0  0  0  0
   12.5470   -5.8487    0.0000 C   0  0  0  0  0  0  0  0  0  0  0  0
   11.1766   -5.2386    0.0000 C   0  0  0  0  0  0  0  0  0  0  0  0
    3.3037   -6.8202    0.0000 C   0  0  0  0  0  0  0  0  0  0  0  0
    2.0046   -7.5702    0.0000 N   0  0  0  0  0  0  0  0  0  0  0  0
    0.8899   -6.5665    0.0000 C   0  0  0  0  0  0  0  0  0  0  0  0
    1.5000   -5.1962    0.0000 C   0  0  0  0  0  0  0  0  0  0  0  0
    0.7500   -3.8971    0.0000 C   0  0  0  0  0  0  0  0  0  0  0  0
    1.5000   -2.5981    0.0000 C   0  0  0  0  0  0  0  0  0  0  0  0
    0.7500   -1.2990    0.0000 C   0  0  0  0  0  0  0  0  0  0  0  0
    1.5000    0.0000    0.0000 C   0  0  0  0  0  0  0  0  0  0  0  0
    0.7500    1.2990    0.0000 C   0  0  0  0  0  0  0  0  0  0  0  0
   -0.7500    1.2990    0.0000 C   0  0  0  0  0  0  0  0  0  0  0  0
   -1.5000    0.0000    0.0000 C   0  0  0  0  0  0  0  0  0  0  0  0
   -0.7500   -1.2990    0.0000 C   0  0  0  0  0  0  0  0  0  0  0  0
   -1.5000   -2.5981    0.0000 N   0  0  0  0  0  0  0  0  0  0  0  0
   -0.7500   -3.8971    0.0000 C   0  0  0  0  0  0  0  0  0  0  0  0
   -1.5000   -5.1962    0.0000 O   0  0  0  0  0  0  0  0  0  0  0  0
   -3.0000   -5.1962    0.0000 C   0  0  0  0  0  0  0  0  0  0  0  0
    2.9918   -5.3529    0.0000 O   0  0  0  0  0  0  0  0  0  0  0  0
  1  2  1  0
  2  3  1  0
  3  4  2  0
  3  5  1  0
  5  6  1  0
  6  7  1  0
  7  8  1  0
  8  9  1  0
  9 10  1  0
 10 11  1  0
 11 12  1  0
 12 13  2  0
 12 14  1  0
 14 15  1  0
 15 16  1  0
 16 17  1  0
 17 18  1  0
 18 19  1  0
 19 20  1  0
 19 21  1  0
 21 22  1  0
 10 23  1  0
 23 24  2  0
 24 25  1  0
 25 26  2  0
 26 27  1  0
 27 28  2  0
 28 29  1  0
 29 30  2  0
 30 31  1  0
 31 32  2  0
 32 33  1  0
 33 34  2  0
 34 35  1  0
 35 36  2  0
 36 37  1  0
 37 38  1  0
 26 39  1  0
 16 14  1  0
 39 23  1  0
 22 16  1  0
 36 27  1  0
 34 29  1  0
M  END
>  <molecule_chembl_id>  (1222) 
CHEMBL4646915

>  <canonical_smiles>  (1222) 
CCC(=O)CCCCCC(NC(=O)C1CC12CCN(C)CC2)c1ncc(-c2cc3ccccc3nc2OC)o1

>  <pchembl_value_mean>  (1222) 
8.33

>  <document_chembl_id>  (1222) 
CHEMBL4622849

$$$$

     RDKit          2D

 32 34  0  0  0  0  0  0  0  0999 V2000
    3.0000   -7.7942    0.0000 C   0  0  0  0  0  0  0  0  0  0  0  0
    3.7500   -6.4952    0.0000 O   0  0  0  0  0  0  0  0  0  0  0  0
    3.0000   -5.1962    0.0000 C   0  0  0  0  0  0  0  0  0  0  0  0
    1.5000   -5.1962    0.0000 C   0  0  0  0  0  0  0  0  0  0  0  0
    0.7500   -3.8971    0.0000 C   0  0  0  0  0  0  0  0  0  0  0  0
    1.5000   -2.5981    0.0000 C   0  0  0  0  0  0  0  0  0  0  0  0
    0.7500   -1.2990    0.0000 C   0  0  0  0  0  0  0  0  0  0  0  0
    1.5000    0.0000    0.0000 C   0  0  0  0  0  0  0  0  0  0  0  0
    0.7500    1.2990    0.0000 C   0  0  0  0  0  0  0  0  0  0  0  0
   -0.7500    1.2990    0.0000 C   0  0  0  0  0  0  0  0  0  0  0  0
   -1.7537    2.4138    0.0000 C   0  0  0  0  0  0  0  0  0  0  0  0
   -1.4418    3.8810    0.0000 N   0  0  0  0  0  0  0  0  0  0  0  0
   -2.5565    4.8847    0.0000 C   0  0  0  0  0  0  0  0  0  0  0  0
   -3.9831    4.4211    0.0000 O   0  0  0  0  0  0  0  0  0  0  0  0
   -2.2447    6.3519    0.0000 C   0  0  0  0  0  0  0  0  0  0  0  0
   -3.3594    7.3556    0.0000 C   0  0  0  0  0  0  0  0  0  0  0  0
   -3.0475    8.8228    0.0000 C   0  0  0  0  0  0  0  0  0  0  0  0
   -4.1622    9.8265    0.0000 C   0  0  0  0  0  0  0  0  0  0  0  0
   -3.8504   11.2937    0.0000 C   0  0  0  0  0  0  0  0  0  0  0  0
   -4.9651   12.2974    0.0000 C   0  0  0  0  0  0  0  0  0  0  0  0
   -4.6532   13.7646    0.0000 C   0  0  0  0  0  0  0  0  0  0  0  0
   -3.2266   14.2282    0.0000 O   0  0  0  0  0  0  0  0  0  0  0  0
   -5.7679   14.7683    0.0000 N   0  0  0  0  0  0  0  0  0  0  0  0
   -5.4561   16.2356    0.0000 O   0  0  0  0  0  0  0  0  0  0  0  0
   -3.1240    1.8037    0.0000 N   0  0  0  0  0  0  0  0  0  0  0  0
   -2.9672    0.3119    0.0000 N   0  0  0  0  0  0  0  0  0  0  0  0
   -1.5000    0.0000    0.0000 C   0  0  0  0  0  0  0  0  0  0  0  0
   -0.7500   -1.2990    0.0000 C   0  0  0  0  0  0  0  0  0  0  0  0
    3.0000   -2.5981    0.0000 C   0  0  0  0  0  0  0  0  0  0  0  0
    3.7500   -3.8971    0.0000 C   0  0  0  0  0  0  0  0  0  0  0  0
    5.2500   -3.8971    0.0000 O   0  0  0  0  0  0  0  0  0  0  0  0
    6.0000   -2.5981    0.0000 C   0  0  0  0  0  0  0  0  0  0  0  0
  1  2  1  0
  2  3  1  0
  3  4  2  0
  4  5  1  0
  5  6  2  0
  6  7  1  0
  7  8  2  0
  8  9  1  0
  9 10  2  0
 10 11  1  0
 11 12  1  0
 12 13  1  0
 13 14  2  0
 13 15  1  0
 15 16  1  0
 16 17  1  0
 17 18  1  0
 18 19  1  0
 19 20  1  0
 20 21  1  0
 21 22  2  0
 21 23  1  0
 23 24  1  0
 11 25  2  0
 25 26  1  0
 26 27  1  0
 27 28  2  0
  6 29  1  0
 29 30  2  0
 30 31  1  0
 31 32  1  0
 30  3  1  0
 28  7  1  0
 27 10  1  0
M  END
>  <molecule_chembl_id>  (1223) 
CHEMBL4793650

>  <canonical_smiles>  (1223) 
COc1ccc(-c2ccc3c(NC(=O)CCCCCCC(=O)NO)n[nH]c3c2)cc1OC

>  <pchembl_value_mean>  (1223) 
8.34

>  <document_chembl_id>  (1223) 
CHEMBL4765277

$$$$

     RDKit          2D

 40 44  0  0  0  0  0  0  0  0999 V2000
   10.7824  -15.8378    0.0000 C   0  0  0  0  0  0  0  0  0  0  0  0
    9.4121  -15.2277    0.0000 C   0  0  0  0  0  0  0  0  0  0  0  0
    9.2553  -13.7359    0.0000 C   0  0  0  0  0  0  0  0  0  0  0  0
   10.4688  -12.8543    0.0000 O   0  0  0  0  0  0  0  0  0  0  0  0
    7.8850  -13.1258    0.0000 C   0  0  0  0  0  0  0  0  0  0  0  0
    7.7282  -11.6340    0.0000 C   0  0  0  0  0  0  0  0  0  0  0  0
    6.3579  -11.0239    0.0000 C   0  0  0  0  0  0  0  0  0  0  0  0
    6.2011   -9.5322    0.0000 C   0  0  0  0  0  0  0  0  0  0  0  0
    4.8308   -8.9221    0.0000 C   0  0  0  0  0  0  0  0  0  0  0  0
    4.6740   -7.4303    0.0000 C   0  0  0  0  0  0  0  0  0  0  0  0
    5.8875   -6.5486    0.0000 N   0  0  0  0  0  0  0  0  0  0  0  0
    7.2578   -7.1587    0.0000 C   0  0  0  0  0  0  0  0  0  0  0  0
    7.4146   -8.6505    0.0000 O   0  0  0  0  0  0  0  0  0  0  0  0
    8.4713   -6.2770    0.0000 C   0  0  0  0  0  0  0  0  0  0  0  0
    9.0814   -4.9067    0.0000 C   0  0  0  0  0  0  0  0  0  0  0  0
    9.9631   -6.1202    0.0000 C   0  0  0  0  0  0  0  0  0  0  0  0
   10.1199   -7.6120    0.0000 C   0  0  0  0  0  0  0  0  0  0  0  0
   11.4902   -8.2221    0.0000 C   0  0  0  0  0  0  0  0  0  0  0  0
   12.7038   -7.3404    0.0000 N   0  0  0  0  0  0  0  0  0  0  0  0
   14.0741   -7.9505    0.0000 C   0  0  0  0  0  0  0  0  0  0  0  0
   14.2309   -9.4423    0.0000 C   0  0  0  0  0  0  0  0  0  0  0  0
   12.5470   -5.8487    0.0000 C   0  0  0  0  0  0  0  0  0  0  0  0
   11.1766   -5.2386    0.0000 C   0  0  0  0  0  0  0  0  0  0  0  0
    3.3037   -6.8202    0.0000 C   0  0  0  0  0  0  0  0  0  0  0  0
    2.0046   -7.5702    0.0000 N   0  0  0  0  0  0  0  0  0  0  0  0
    0.8899   -6.5665    0.0000 C   0  0  0  0  0  0  0  0  0  0  0  0
    1.5000   -5.1962    0.0000 C   0  0  0  0  0  0  0  0  0  0  0  0
    0.7500   -3.8971    0.0000 C   0  0  0  0  0  0  0  0  0  0  0  0
    1.5000   -2.5981    0.0000 C   0  0  0  0  0  0  0  0  0  0  0  0
    0.7500   -1.2990    0.0000 C   0  0  0  0  0  0  0  0  0  0  0  0
    1.5000    0.0000    0.0000 C   0  0  0  0  0  0  0  0  0  0  0  0
    0.7500    1.2990    0.0000 C   0  0  0  0  0  0  0  0  0  0  0  0
   -0.7500    1.2990    0.0000 C   0  0  0  0  0  0  0  0  0  0  0  0
   -1.5000    0.0000    0.0000 C   0  0  0  0  0  0  0  0  0  0  0  0
   -0.7500   -1.2990    0.0000 C   0  0  0  0  0  0  0  0  0  0  0  0
   -1.5000   -2.5981    0.0000 N   0  0  0  0  0  0  0  0  0  0  0  0
   -0.7500   -3.8971    0.0000 C   0  0  0  0  0  0  0  0  0  0  0  0
   -1.5000   -5.1962    0.0000 O   0  0  0  0  0  0  0  0  0  0  0  0
   -3.0000   -5.1962    0.0000 C   0  0  0  0  0  0  0  0  0  0  0  0
    2.9918   -5.3529    0.0000 O   0  0  0  0  0  0  0  0  0  0  0  0
  1  2  1  0
  2  3  1  0
  3  4  2  0
  3  5  1  0
  5  6  1  0
  6  7  1  0
  7  8  1  0
  8  9  1  0
  9 10  1  0
 10 11  1  0
 11 12  1  0
 12 13  2  0
 12 14  1  0
 14 15  1  0
 15 16  1  0
 16 17  1  0
 17 18  1  0
 18 19  1  0
 19 20  1  0
 20 21  1  0
 19 22  1  0
 22 23  1  0
 10 24  1  0
 24 25  2  0
 25 26  1  0
 26 27  2  0
 27 28  1  0
 28 29  2  0
 29 30  1  0
 30 31  2  0
 31 32  1  0
 32 33  2  0
 33 34  1  0
 34 35  2  0
 35 36  1  0
 36 37  2  0
 37 38  1  0
 38 39  1  0
 27 40  1  0
 16 14  1  0
 40 24  1  0
 23 16  1  0
 37 28  1  0
 35 30  1  0
M  END
>  <molecule_chembl_id>  (1224) 
CHEMBL4648704

>  <canonical_smiles>  (1224) 
CCC(=O)CCCCCC(NC(=O)C1CC12CCN(CC)CC2)c1ncc(-c2cc3ccccc3nc2OC)o1

>  <pchembl_value_mean>  (1224) 
8.35

>  <document_chembl_id>  (1224) 
CHEMBL4622849

$$$$

     RDKit          2D

 33 35  0  0  0  0  0  0  0  0999 V2000
   -4.0852   -9.6842    0.0000 C   0  0  0  0  0  0  0  0  0  0  0  0
   -2.6994   -9.1101    0.0000 C   0  0  0  0  0  0  0  0  0  0  0  0
   -1.5093  -10.0233    0.0000 C   0  0  0  0  0  0  0  0  0  0  0  0
   -2.5036   -7.6230    0.0000 C   0  0  0  0  0  0  0  0  0  0  0  0
   -1.0068   -7.5249    0.0000 N   0  0  0  0  0  0  0  0  0  0  0  0
    0.3385   -6.8614    0.0000 C   0  0  0  0  0  0  0  0  0  0  0  0
    1.2517   -8.0515    0.0000 O   0  0  0  0  0  0  0  0  0  0  0  0
    1.3275   -5.7337    0.0000 C   0  0  0  0  0  0  0  0  0  0  0  0
    2.6266   -6.4837    0.0000 C   0  0  0  0  0  0  0  0  0  0  0  0
    2.8024   -5.4603    0.0000 C   0  0  0  0  0  0  0  0  0  0  0  0
    2.9982   -3.9732    0.0000 S   0  0  0  0  0  0  0  0  0  0  0  0
    1.7116   -2.8165    0.0000 C   0  0  0  0  0  0  0  0  0  0  0  0
    1.8097   -4.3133    0.0000 N   0  0  0  0  0  0  0  0  0  0  0  0
    0.7500   -1.2990    0.0000 C   0  0  0  0  0  0  0  0  0  0  0  0
    1.5000    0.0000    0.0000 C   0  0  0  0  0  0  0  0  0  0  0  0
    0.7500    1.2990    0.0000 C   0  0  0  0  0  0  0  0  0  0  0  0
   -0.7500    1.2990    0.0000 N   0  0  0  0  0  0  0  0  0  0  0  0
   -1.5000    0.0000    0.0000 C   0  0  0  0  0  0  0  0  0  0  0  0
   -0.7500   -1.2990    0.0000 C   0  0  0  0  0  0  0  0  0  0  0  0
   -2.9968   -0.0981    0.0000 C   0  0  0  0  0  0  0  0  0  0  0  0
   -4.3421   -0.7615    0.0000 N   0  0  0  0  0  0  0  0  0  0  0  0
   -5.3311   -1.8893    0.0000 C   0  0  0  0  0  0  0  0  0  0  0  0
   -6.6302   -1.1393    0.0000 O   0  0  0  0  0  0  0  0  0  0  0  0
   -5.8133   -3.3097    0.0000 C   0  0  0  0  0  0  0  0  0  0  0  0
   -5.7152   -4.8065    0.0000 C   0  0  0  0  0  0  0  0  0  0  0  0
   -7.1641   -5.1947    0.0000 C   0  0  0  0  0  0  0  0  0  0  0  0
   -8.2247   -4.1340    0.0000 C   0  0  0  0  0  0  0  0  0  0  0  0
   -9.6736   -4.5223    0.0000 C   0  0  0  0  0  0  0  0  0  0  0  0
  -10.7343   -3.4616    0.0000 C   0  0  0  0  0  0  0  0  0  0  0  0
  -12.1832   -3.8498    0.0000 S   0  0  0  0  0  0  0  0  0  0  0  0
   -5.0517   -6.1518    0.0000 O   0  0  0  0  0  0  0  0  0  0  0  0
   -3.9240   -7.1408    0.0000 C   0  0  0  0  0  0  0  0  0  0  0  0
   -4.6740   -8.4398    0.0000 O   0  0  0  0  0  0  0  0  0  0  0  0
  1  2  1  0
  2  3  1  0
  2  4  1  0
  4  5  1  0
  5  6  1  0
  6  7  2  0
  6  8  1  0
  8  9  1  0
  8 10  1  0
 10 11  1  0
 11 12  1  0
 12 13  2  0
 12 14  1  0
 14 15  1  0
 15 16  2  0
 16 17  1  0
 17 18  2  0
 18 19  1  0
 18 20  1  0
 20 21  1  0
 21 22  1  0
 22 23  2  0
 22 24  1  0
 24 25  1  0
 25 26  1  0
 26 27  2  3
 27 28  1  0
 28 29  1  0
 29 30  1  0
 25 31  1  0
 31 32  1  0
 32 33  2  0
 32  4  1  0
 13  8  1  0
 19 14  2  0
M  END
>  <molecule_chembl_id>  (1225) 
CHEMBL3593411

>  <canonical_smiles>  (1225) 
CC(C)C1NC(=O)C2(C)CSC(=N2)c2ccnc(c2)CNC(=O)CC(C=CCCS)OC1=O

>  <pchembl_value_mean>  (1225) 
8.36

>  <document_chembl_id>  (1225) 
CHEMBL3593208

$$$$

     RDKit          2D

 33 35  0  0  0  0  0  0  0  0999 V2000
   -4.0852   -9.6842    0.0000 C   0  0  0  0  0  0  0  0  0  0  0  0
   -2.6994   -9.1101    0.0000 C   0  0  0  0  0  0  0  0  0  0  0  0
   -1.5093  -10.0233    0.0000 C   0  0  0  0  0  0  0  0  0  0  0  0
   -2.5036   -7.6230    0.0000 C   0  0  0  0  0  0  0  0  0  0  0  0
   -1.0068   -7.5249    0.0000 N   0  0  0  0  0  0  0  0  0  0  0  0
    0.3385   -6.8614    0.0000 C   0  0  0  0  0  0  0  0  0  0  0  0
    1.2517   -8.0515    0.0000 O   0  0  0  0  0  0  0  0  0  0  0  0
    1.3275   -5.7337    0.0000 C   0  0  0  0  0  0  0  0  0  0  0  0
    2.6266   -6.4837    0.0000 C   0  0  0  0  0  0  0  0  0  0  0  0
    2.8024   -5.4603    0.0000 C   0  0  0  0  0  0  0  0  0  0  0  0
    2.9982   -3.9732    0.0000 S   0  0  0  0  0  0  0  0  0  0  0  0
    1.7116   -2.8165    0.0000 C   0  0  0  0  0  0  0  0  0  0  0  0
    1.8097   -4.3133    0.0000 N   0  0  0  0  0  0  0  0  0  0  0  0
    0.7500   -1.2990    0.0000 C   0  0  0  0  0  0  0  0  0  0  0  0
    1.5000    0.0000    0.0000 C   0  0  0  0  0  0  0  0  0  0  0  0
    0.7500    1.2990    0.0000 C   0  0  0  0  0  0  0  0  0  0  0  0
   -0.7500    1.2990    0.0000 C   0  0  0  0  0  0  0  0  0  0  0  0
   -1.5000    0.0000    0.0000 C   0  0  0  0  0  0  0  0  0  0  0  0
   -0.7500   -1.2990    0.0000 N   0  0  0  0  0  0  0  0  0  0  0  0
   -2.9968   -0.0981    0.0000 C   0  0  0  0  0  0  0  0  0  0  0  0
   -4.3421   -0.7615    0.0000 N   0  0  0  0  0  0  0  0  0  0  0  0
   -5.3311   -1.8893    0.0000 C   0  0  0  0  0  0  0  0  0  0  0  0
   -6.6302   -1.1393    0.0000 O   0  0  0  0  0  0  0  0  0  0  0  0
   -5.8133   -3.3097    0.0000 C   0  0  0  0  0  0  0  0  0  0  0  0
   -5.7152   -4.8065    0.0000 C   0  0  0  0  0  0  0  0  0  0  0  0
   -7.1641   -5.1947    0.0000 C   0  0  0  0  0  0  0  0  0  0  0  0
   -8.2247   -4.1340    0.0000 C   0  0  0  0  0  0  0  0  0  0  0  0
   -9.6736   -4.5223    0.0000 C   0  0  0  0  0  0  0  0  0  0  0  0
  -10.7343   -3.4616    0.0000 C   0  0  0  0  0  0  0  0  0  0  0  0
  -12.1832   -3.8498    0.0000 S   0  0  0  0  0  0  0  0  0  0  0  0
   -5.0517   -6.1518    0.0000 O   0  0  0  0  0  0  0  0  0  0  0  0
   -3.9240   -7.1408    0.0000 C   0  0  0  0  0  0  0  0  0  0  0  0
   -4.6740   -8.4398    0.0000 O   0  0  0  0  0  0  0  0  0  0  0  0
  1  2  1  0
  2  3  1  0
  2  4  1  0
  4  5  1  0
  5  6  1  0
  6  7  2  0
  6  8  1  0
  8  9  1  0
  8 10  1  0
 10 11  1  0
 11 12  1  0
 12 13  2  0
 12 14  1  0
 14 15  1  0
 15 16  2  0
 16 17  1  0
 17 18  2  0
 18 19  1  0
 18 20  1  0
 20 21  1  0
 21 22  1  0
 22 23  2  0
 22 24  1  0
 24 25  1  0
 25 26  1  0
 26 27  2  3
 27 28  1  0
 28 29  1  0
 29 30  1  0
 25 31  1  0
 31 32  1  0
 32 33  2  0
 32  4  1  0
 13  8  1  0
 19 14  2  0
M  END
>  <molecule_chembl_id>  (1226) 
CHEMBL3593409

>  <canonical_smiles>  (1226) 
CC(C)C1NC(=O)C2(C)CSC(=N2)c2cccc(n2)CNC(=O)CC(C=CCCS)OC1=O

>  <pchembl_value_mean>  (1226) 
8.36

>  <document_chembl_id>  (1226) 
CHEMBL3593208

$$$$

     RDKit          2D

 29 31  0  0  0  0  0  0  0  0999 V2000
  -10.7086   -9.9084    0.0000 O   0  0  0  0  0  0  0  0  0  0  0  0
   -9.5939  -10.9121    0.0000 C   0  0  0  0  0  0  0  0  0  0  0  0
   -8.1673  -10.4486    0.0000 C   0  0  0  0  0  0  0  0  0  0  0  0
   -7.8555   -8.9814    0.0000 C   0  0  0  0  0  0  0  0  0  0  0  0
   -6.4289   -8.5179    0.0000 C   0  0  0  0  0  0  0  0  0  0  0  0
   -6.1170   -7.0506    0.0000 C   0  0  0  0  0  0  0  0  0  0  0  0
   -4.6904   -6.5871    0.0000 C   0  0  0  0  0  0  0  0  0  0  0  0
   -4.3786   -5.1199    0.0000 C   0  0  0  0  0  0  0  0  0  0  0  0
   -2.9520   -4.6564    0.0000 C   0  0  0  0  0  0  0  0  0  0  0  0
   -1.8373   -5.6601    0.0000 O   0  0  0  0  0  0  0  0  0  0  0  0
   -2.6401   -3.1891    0.0000 N   0  0  0  0  0  0  0  0  0  0  0  0
   -1.2135   -2.7256    0.0000 C   0  0  0  0  0  0  0  0  0  0  0  0
   -0.0000   -3.6073    0.0000 N   0  0  0  0  0  0  0  0  0  0  0  0
    1.2135   -2.7256    0.0000 N   0  0  0  0  0  0  0  0  0  0  0  0
    0.7500   -1.2990    0.0000 C   0  0  0  0  0  0  0  0  0  0  0  0
    1.5000    0.0000    0.0000 C   0  0  0  0  0  0  0  0  0  0  0  0
    0.7500    1.2990    0.0000 C   0  0  0  0  0  0  0  0  0  0  0  0
    1.5000    2.5981    0.0000 C   0  0  0  0  0  0  0  0  0  0  0  0
    3.0000    2.5981    0.0000 C   0  0  0  0  0  0  0  0  0  0  0  0
    3.7500    3.8971    0.0000 C   0  0  0  0  0  0  0  0  0  0  0  0
    3.0000    5.1962    0.0000 C   0  0  0  0  0  0  0  0  0  0  0  0
    1.5000    5.1962    0.0000 C   0  0  0  0  0  0  0  0  0  0  0  0
    0.7500    3.8971    0.0000 C   0  0  0  0  0  0  0  0  0  0  0  0
   -0.7500    3.8971    0.0000 F   0  0  0  0  0  0  0  0  0  0  0  0
   -0.7500    1.2990    0.0000 C   0  0  0  0  0  0  0  0  0  0  0  0
   -1.5000    0.0000    0.0000 C   0  0  0  0  0  0  0  0  0  0  0  0
   -0.7500   -1.2990    0.0000 C   0  0  0  0  0  0  0  0  0  0  0  0
   -9.9058  -12.3794    0.0000 N   0  0  0  0  0  0  0  0  0  0  0  0
  -11.3324  -12.8429    0.0000 O   0  0  0  0  0  0  0  0  0  0  0  0
  1  2  2  0
  2  3  1  0
  3  4  1  0
  4  5  1  0
  5  6  1  0
  6  7  1  0
  7  8  1  0
  8  9  1  0
  9 10  2  0
  9 11  1  0
 11 12  1  0
 12 13  2  0
 13 14  1  0
 14 15  1  0
 15 16  2  0
 16 17  1  0
 17 18  1  0
 18 19  2  0
 19 20  1  0
 20 21  2  0
 21 22  1  0
 22 23  2  0
 23 24  1  0
 17 25  2  0
 25 26  1  0
 26 27  2  0
  2 28  1  0
 28 29  1  0
 27 12  1  0
 27 15  1  0
 23 18  1  0
M  END
>  <molecule_chembl_id>  (1227) 
CHEMBL4786031

>  <canonical_smiles>  (1227) 
O=C(CCCCCCC(=O)Nc1n[nH]c2cc(-c3ccccc3F)ccc12)NO

>  <pchembl_value_mean>  (1227) 
8.36

>  <document_chembl_id>  (1227) 
CHEMBL4765277

$$$$

     RDKit          2D

 41 45  0  0  0  0  0  0  0  0999 V2000
   10.7824  -15.8378    0.0000 C   0  0  0  0  0  0  0  0  0  0  0  0
    9.4121  -15.2277    0.0000 C   0  0  0  0  0  0  0  0  0  0  0  0
    9.2553  -13.7359    0.0000 C   0  0  0  0  0  0  0  0  0  0  0  0
   10.4688  -12.8543    0.0000 O   0  0  0  0  0  0  0  0  0  0  0  0
    7.8850  -13.1258    0.0000 C   0  0  0  0  0  0  0  0  0  0  0  0
    7.7282  -11.6340    0.0000 C   0  0  0  0  0  0  0  0  0  0  0  0
    6.3579  -11.0239    0.0000 C   0  0  0  0  0  0  0  0  0  0  0  0
    6.2011   -9.5322    0.0000 C   0  0  0  0  0  0  0  0  0  0  0  0
    4.8308   -8.9221    0.0000 C   0  0  0  0  0  0  0  0  0  0  0  0
    4.6740   -7.4303    0.0000 C   0  0  0  0  0  0  0  0  0  0  0  0
    5.8875   -6.5486    0.0000 N   0  0  0  0  0  0  0  0  0  0  0  0
    7.2578   -7.1587    0.0000 C   0  0  0  0  0  0  0  0  0  0  0  0
    7.4146   -8.6505    0.0000 O   0  0  0  0  0  0  0  0  0  0  0  0
    8.4713   -6.2770    0.0000 C   0  0  0  0  0  0  0  0  0  0  0  0
    8.7060   -4.7955    0.0000 C   0  0  0  0  0  0  0  0  0  0  0  0
   10.1875   -5.0301    0.0000 C   0  0  0  0  0  0  0  0  0  0  0  0
    9.9529   -6.5117    0.0000 C   0  0  0  0  0  0  0  0  0  0  0  0
   11.4447   -6.3549    0.0000 C   0  0  0  0  0  0  0  0  0  0  0  0
   12.3263   -7.5684    0.0000 C   0  0  0  0  0  0  0  0  0  0  0  0
   11.7162   -8.9387    0.0000 N   0  0  0  0  0  0  0  0  0  0  0  0
   12.5979  -10.1522    0.0000 C   0  0  0  0  0  0  0  0  0  0  0  0
   11.9878  -11.5226    0.0000 C   0  0  0  0  0  0  0  0  0  0  0  0
   10.2244   -9.0955    0.0000 C   0  0  0  0  0  0  0  0  0  0  0  0
    9.3428   -7.8820    0.0000 C   0  0  0  0  0  0  0  0  0  0  0  0
    3.3037   -6.8202    0.0000 C   0  0  0  0  0  0  0  0  0  0  0  0
    2.0046   -7.5702    0.0000 N   0  0  0  0  0  0  0  0  0  0  0  0
    0.8899   -6.5665    0.0000 C   0  0  0  0  0  0  0  0  0  0  0  0
    1.5000   -5.1962    0.0000 C   0  0  0  0  0  0  0  0  0  0  0  0
    0.7500   -3.8971    0.0000 C   0  0  0  0  0  0  0  0  0  0  0  0
    1.5000   -2.5981    0.0000 C   0  0  0  0  0  0  0  0  0  0  0  0
    0.7500   -1.2990    0.0000 C   0  0  0  0  0  0  0  0  0  0  0  0
    1.5000    0.0000    0.0000 C   0  0  0  0  0  0  0  0  0  0  0  0
    0.7500    1.2990    0.0000 C   0  0  0  0  0  0  0  0  0  0  0  0
   -0.7500    1.2990    0.0000 C   0  0  0  0  0  0  0  0  0  0  0  0
   -1.5000    0.0000    0.0000 C   0  0  0  0  0  0  0  0  0  0  0  0
   -0.7500   -1.2990    0.0000 C   0  0  0  0  0  0  0  0  0  0  0  0
   -1.5000   -2.5981    0.0000 N   0  0  0  0  0  0  0  0  0  0  0  0
   -0.7500   -3.8971    0.0000 C   0  0  0  0  0  0  0  0  0  0  0  0
   -1.5000   -5.1962    0.0000 O   0  0  0  0  0  0  0  0  0  0  0  0
   -3.0000   -5.1962    0.0000 C   0  0  0  0  0  0  0  0  0  0  0  0
    2.9918   -5.3529    0.0000 N   0  0  0  0  0  0  0  0  0  0  0  0
  1  2  1  0
  2  3  1  0
  3  4  2  0
  3  5  1  0
  5  6  1  0
  6  7  1  0
  7  8  1  0
  8  9  1  0
  9 10  1  0
 10 11  1  0
 11 12  1  0
 12 13  2  0
 12 14  1  0
 14 15  1  0
 15 16  1  0
 16 17  1  0
 17 18  1  0
 18 19  1  0
 19 20  1  0
 20 21  1  0
 21 22  1  0
 20 23  1  0
 23 24  1  0
 10 25  1  0
 25 26  2  0
 26 27  1  0
 27 28  2  0
 28 29  1  0
 29 30  2  0
 30 31  1  0
 31 32  2  0
 32 33  1  0
 33 34  2  0
 34 35  1  0
 35 36  2  0
 36 37  1  0
 37 38  2  0
 38 39  1  0
 39 40  1  0
 28 41  1  0
 17 14  1  0
 41 25  1  0
 24 17  1  0
 38 29  1  0
 36 31  1  0
M  END
>  <molecule_chembl_id>  (1228) 
CHEMBL4638264

>  <canonical_smiles>  (1228) 
CCC(=O)CCCCCC(NC(=O)C1CCC12CCN(CC)CC2)c1ncc(-c2cc3ccccc3nc2OC)[nH]1

>  <pchembl_value_mean>  (1228) 
8.37

>  <document_chembl_id>  (1228) 
CHEMBL4622849

$$$$

     RDKit          2D

 31 33  0  0  0  0  0  0  0  0999 V2000
    7.5000   -5.1962    0.0000 C   0  0  0  0  0  0  0  0  0  0  0  0
    6.0000   -5.1962    0.0000 C   0  0  0  0  0  0  0  0  0  0  0  0
    5.2500   -3.8971    0.0000 O   0  0  0  0  0  0  0  0  0  0  0  0
    3.7500   -3.8971    0.0000 C   0  0  0  0  0  0  0  0  0  0  0  0
    3.0000   -5.1962    0.0000 C   0  0  0  0  0  0  0  0  0  0  0  0
    1.5000   -5.1962    0.0000 C   0  0  0  0  0  0  0  0  0  0  0  0
    0.7500   -3.8971    0.0000 C   0  0  0  0  0  0  0  0  0  0  0  0
    1.5000   -2.5981    0.0000 C   0  0  0  0  0  0  0  0  0  0  0  0
    0.7500   -1.2990    0.0000 C   0  0  0  0  0  0  0  0  0  0  0  0
    1.5000    0.0000    0.0000 C   0  0  0  0  0  0  0  0  0  0  0  0
    0.7500    1.2990    0.0000 C   0  0  0  0  0  0  0  0  0  0  0  0
   -0.7500    1.2990    0.0000 C   0  0  0  0  0  0  0  0  0  0  0  0
   -1.7537    2.4138    0.0000 C   0  0  0  0  0  0  0  0  0  0  0  0
   -1.4418    3.8810    0.0000 N   0  0  0  0  0  0  0  0  0  0  0  0
   -2.5565    4.8847    0.0000 C   0  0  0  0  0  0  0  0  0  0  0  0
   -3.9831    4.4211    0.0000 O   0  0  0  0  0  0  0  0  0  0  0  0
   -2.2447    6.3519    0.0000 C   0  0  0  0  0  0  0  0  0  0  0  0
   -3.3594    7.3556    0.0000 C   0  0  0  0  0  0  0  0  0  0  0  0
   -3.0475    8.8228    0.0000 C   0  0  0  0  0  0  0  0  0  0  0  0
   -4.1622    9.8265    0.0000 C   0  0  0  0  0  0  0  0  0  0  0  0
   -3.8504   11.2937    0.0000 C   0  0  0  0  0  0  0  0  0  0  0  0
   -4.9651   12.2974    0.0000 C   0  0  0  0  0  0  0  0  0  0  0  0
   -4.6532   13.7646    0.0000 C   0  0  0  0  0  0  0  0  0  0  0  0
   -3.2266   14.2282    0.0000 O   0  0  0  0  0  0  0  0  0  0  0  0
   -5.7679   14.7683    0.0000 N   0  0  0  0  0  0  0  0  0  0  0  0
   -5.4561   16.2356    0.0000 O   0  0  0  0  0  0  0  0  0  0  0  0
   -3.1240    1.8037    0.0000 N   0  0  0  0  0  0  0  0  0  0  0  0
   -2.9672    0.3119    0.0000 N   0  0  0  0  0  0  0  0  0  0  0  0
   -1.5000    0.0000    0.0000 C   0  0  0  0  0  0  0  0  0  0  0  0
   -0.7500   -1.2990    0.0000 C   0  0  0  0  0  0  0  0  0  0  0  0
    3.0000   -2.5981    0.0000 C   0  0  0  0  0  0  0  0  0  0  0  0
  1  2  1  0
  2  3  1  0
  3  4  1  0
  4  5  2  0
  5  6  1  0
  6  7  2  0
  7  8  1  0
  8  9  1  0
  9 10  2  0
 10 11  1  0
 11 12  2  0
 12 13  1  0
 13 14  1  0
 14 15  1  0
 15 16  2  0
 15 17  1  0
 17 18  1  0
 18 19  1  0
 19 20  1  0
 20 21  1  0
 21 22  1  0
 22 23  1  0
 23 24  2  0
 23 25  1  0
 25 26  1  0
 13 27  2  0
 27 28  1  0
 28 29  1  0
 29 30  2  0
  8 31  2  0
 31  4  1  0
 30  9  1  0
 29 12  1  0
M  END
>  <molecule_chembl_id>  (1229) 
CHEMBL4776328

>  <canonical_smiles>  (1229) 
CCOc1cccc(-c2ccc3c(NC(=O)CCCCCCC(=O)NO)n[nH]c3c2)c1

>  <pchembl_value_mean>  (1229) 
8.38

>  <document_chembl_id>  (1229) 
CHEMBL4765277

$$$$

     RDKit          2D

 32 35  0  0  0  0  0  0  0  0999 V2000
   -6.2940    7.2357    0.0000 N   0  0  0  0  0  0  0  0  0  0  0  0
   -5.1793    6.2320    0.0000 C   0  0  0  0  0  0  0  0  0  0  0  0
   -3.7527    6.6955    0.0000 N   0  0  0  0  0  0  0  0  0  0  0  0
   -2.6380    5.6918    0.0000 C   0  0  0  0  0  0  0  0  0  0  0  0
   -2.9499    4.2246    0.0000 C   0  0  0  0  0  0  0  0  0  0  0  0
   -1.8351    3.2209    0.0000 C   0  0  0  0  0  0  0  0  0  0  0  0
   -0.4086    3.6844    0.0000 N   0  0  0  0  0  0  0  0  0  0  0  0
    0.7062    2.6807    0.0000 C   0  0  0  0  0  0  0  0  0  0  0  0
    2.1328    3.1443    0.0000 N   0  0  0  0  0  0  0  0  0  0  0  0
    3.2475    2.1406    0.0000 C   0  0  0  0  0  0  0  0  0  0  0  0
    4.6741    2.6041    0.0000 C   0  0  0  0  0  0  0  0  0  0  0  0
    4.9859    4.0713    0.0000 O   0  0  0  0  0  0  0  0  0  0  0  0
    3.8712    5.0750    0.0000 C   0  0  0  0  0  0  0  0  0  0  0  0
    2.4446    4.6115    0.0000 C   0  0  0  0  0  0  0  0  0  0  0  0
    0.3943    1.2135    0.0000 C   0  0  0  0  0  0  0  0  0  0  0  0
    1.2760    0.0000    0.0000 C   0  0  0  0  0  0  0  0  0  0  0  0
    0.3943   -1.2135    0.0000 C   0  0  0  0  0  0  0  0  0  0  0  0
   -1.0323   -0.7500    0.0000 N   0  0  0  0  0  0  0  0  0  0  0  0
   -2.2458   -1.6317    0.0000 C   0  0  0  0  0  0  0  0  0  0  0  0
   -2.0890   -3.1235    0.0000 C   0  0  0  0  0  0  0  0  0  0  0  0
   -3.3025   -4.0051    0.0000 C   0  0  0  0  0  0  0  0  0  0  0  0
   -3.1458   -5.4969    0.0000 C   0  0  0  0  0  0  0  0  0  0  0  0
   -4.3593   -6.3786    0.0000 C   0  0  0  0  0  0  0  0  0  0  0  0
   -4.2025   -7.8704    0.0000 C   0  0  0  0  0  0  0  0  0  0  0  0
   -5.4160   -8.7521    0.0000 C   0  0  0  0  0  0  0  0  0  0  0  0
   -6.7863   -8.1420    0.0000 O   0  0  0  0  0  0  0  0  0  0  0  0
   -5.2592  -10.2438    0.0000 N   0  0  0  0  0  0  0  0  0  0  0  0
   -6.4727  -11.1255    0.0000 O   0  0  0  0  0  0  0  0  0  0  0  0
   -1.0323    0.7500    0.0000 C   0  0  0  0  0  0  0  0  0  0  0  0
   -2.1470    1.7537    0.0000 N   0  0  0  0  0  0  0  0  0  0  0  0
   -4.3764    3.7611    0.0000 C   0  0  0  0  0  0  0  0  0  0  0  0
   -5.4912    4.7648    0.0000 N   0  0  0  0  0  0  0  0  0  0  0  0
  1  2  1  0
  2  3  2  0
  3  4  1  0
  4  5  2  0
  5  6  1  0
  6  7  2  0
  7  8  1  0
  8  9  1  0
  9 10  1  0
 10 11  1  0
 11 12  1  0
 12 13  1  0
 13 14  1  0
  8 15  2  0
 15 16  1  0
 16 17  2  0
 17 18  1  0
 18 19  1  0
 19 20  1  0
 20 21  1  0
 21 22  1  0
 22 23  1  0
 23 24  1  0
 24 25  1  0
 25 26  2  0
 25 27  1  0
 27 28  1  0
 18 29  1  0
 29 30  2  0
  5 31  1  0
 31 32  2  0
 32  2  1  0
 30  6  1  0
 14  9  1  0
 29 15  1  0
M  END
>  <molecule_chembl_id>  (1230) 
CHEMBL4744689

>  <canonical_smiles>  (1230) 
Nc1ncc(-c2nc(N3CCOCC3)c3ccn(CCCCCCC(=O)NO)c3n2)cn1

>  <pchembl_value_mean>  (1230) 
8.39

>  <document_chembl_id>  (1230) 
CHEMBL4706478

$$$$

     RDKit          2D

 29 31  0  0  0  0  0  0  0  0999 V2000
  -10.7086   -9.9084    0.0000 O   0  0  0  0  0  0  0  0  0  0  0  0
   -9.5939  -10.9121    0.0000 C   0  0  0  0  0  0  0  0  0  0  0  0
   -8.1673  -10.4486    0.0000 C   0  0  0  0  0  0  0  0  0  0  0  0
   -7.8555   -8.9814    0.0000 C   0  0  0  0  0  0  0  0  0  0  0  0
   -6.4289   -8.5179    0.0000 C   0  0  0  0  0  0  0  0  0  0  0  0
   -6.1170   -7.0506    0.0000 C   0  0  0  0  0  0  0  0  0  0  0  0
   -4.6904   -6.5871    0.0000 C   0  0  0  0  0  0  0  0  0  0  0  0
   -4.3786   -5.1199    0.0000 C   0  0  0  0  0  0  0  0  0  0  0  0
   -2.9520   -4.6564    0.0000 C   0  0  0  0  0  0  0  0  0  0  0  0
   -1.8373   -5.6601    0.0000 O   0  0  0  0  0  0  0  0  0  0  0  0
   -2.6401   -3.1891    0.0000 N   0  0  0  0  0  0  0  0  0  0  0  0
   -1.2135   -2.7256    0.0000 C   0  0  0  0  0  0  0  0  0  0  0  0
   -0.0000   -3.6073    0.0000 N   0  0  0  0  0  0  0  0  0  0  0  0
    1.2135   -2.7256    0.0000 N   0  0  0  0  0  0  0  0  0  0  0  0
    0.7500   -1.2990    0.0000 C   0  0  0  0  0  0  0  0  0  0  0  0
    1.5000    0.0000    0.0000 C   0  0  0  0  0  0  0  0  0  0  0  0
    0.7500    1.2990    0.0000 C   0  0  0  0  0  0  0  0  0  0  0  0
    1.5000    2.5981    0.0000 C   0  0  0  0  0  0  0  0  0  0  0  0
    3.0000    2.5981    0.0000 C   0  0  0  0  0  0  0  0  0  0  0  0
    3.7500    3.8971    0.0000 C   0  0  0  0  0  0  0  0  0  0  0  0
    3.0000    5.1962    0.0000 C   0  0  0  0  0  0  0  0  0  0  0  0
    1.5000    5.1962    0.0000 C   0  0  0  0  0  0  0  0  0  0  0  0
    0.7500    6.4952    0.0000 Cl  0  0  0  0  0  0  0  0  0  0  0  0
    0.7500    3.8971    0.0000 C   0  0  0  0  0  0  0  0  0  0  0  0
   -0.7500    1.2990    0.0000 C   0  0  0  0  0  0  0  0  0  0  0  0
   -1.5000    0.0000    0.0000 C   0  0  0  0  0  0  0  0  0  0  0  0
   -0.7500   -1.2990    0.0000 C   0  0  0  0  0  0  0  0  0  0  0  0
   -9.9058  -12.3794    0.0000 N   0  0  0  0  0  0  0  0  0  0  0  0
  -11.3324  -12.8429    0.0000 O   0  0  0  0  0  0  0  0  0  0  0  0
  1  2  2  0
  2  3  1  0
  3  4  1  0
  4  5  1  0
  5  6  1  0
  6  7  1  0
  7  8  1  0
  8  9  1  0
  9 10  2  0
  9 11  1  0
 11 12  1  0
 12 13  2  0
 13 14  1  0
 14 15  1  0
 15 16  2  0
 16 17  1  0
 17 18  1  0
 18 19  2  0
 19 20  1  0
 20 21  2  0
 21 22  1  0
 22 23  1  0
 22 24  2  0
 17 25  2  0
 25 26  1  0
 26 27  2  0
  2 28  1  0
 28 29  1  0
 27 12  1  0
 27 15  1  0
 24 18  1  0
M  END
>  <molecule_chembl_id>  (1231) 
CHEMBL4792980

>  <canonical_smiles>  (1231) 
O=C(CCCCCCC(=O)Nc1n[nH]c2cc(-c3cccc(Cl)c3)ccc12)NO

>  <pchembl_value_mean>  (1231) 
8.4

>  <document_chembl_id>  (1231) 
CHEMBL4765277

$$$$

     RDKit          2D

 24 26  0  0  0  0  0  0  0  0999 V2000
    6.0000    0.0000    0.0000 O   0  0  0  0  0  0  0  0  0  0  0  0
    5.2500   -1.2990    0.0000 C   0  0  0  0  0  0  0  0  0  0  0  0
    3.7500   -1.2990    0.0000 C   0  0  0  0  0  0  0  0  0  0  0  0
    3.0000    0.0000    0.0000 C   0  0  0  0  0  0  0  0  0  0  0  0
    1.5000    0.0000    0.0000 C   0  0  0  0  0  0  0  0  0  0  0  0
    0.7500   -1.2990    0.0000 C   0  0  0  0  0  0  0  0  0  0  0  0
   -0.7500   -1.2990    0.0000 C   0  0  0  0  0  0  0  0  0  0  0  0
   -1.5000    0.0000    0.0000 C   0  0  0  0  0  0  0  0  0  0  0  0
   -0.7500    1.2990    0.0000 C   0  0  0  0  0  0  0  0  0  0  0  0
   -1.7537    2.4138    0.0000 C   0  0  0  0  0  0  0  0  0  0  0  0
   -3.1240    1.8037    0.0000 C   0  0  0  0  0  0  0  0  0  0  0  0
   -2.9672    0.3119    0.0000 N   0  0  0  0  0  0  0  0  0  0  0  0
   -4.0819   -0.6918    0.0000 S   0  0  0  0  0  0  0  0  0  0  0  0
   -3.0782   -1.8065    0.0000 O   0  0  0  0  0  0  0  0  0  0  0  0
   -5.0856    0.4229    0.0000 O   0  0  0  0  0  0  0  0  0  0  0  0
   -5.1967   -1.6955    0.0000 C   0  0  0  0  0  0  0  0  0  0  0  0
   -6.6232   -1.2320    0.0000 C   0  0  0  0  0  0  0  0  0  0  0  0
   -7.7380   -2.2357    0.0000 C   0  0  0  0  0  0  0  0  0  0  0  0
   -7.4261   -3.7029    0.0000 C   0  0  0  0  0  0  0  0  0  0  0  0
   -5.9995   -4.1664    0.0000 C   0  0  0  0  0  0  0  0  0  0  0  0
   -4.8848   -3.1627    0.0000 C   0  0  0  0  0  0  0  0  0  0  0  0
    0.7500    1.2990    0.0000 C   0  0  0  0  0  0  0  0  0  0  0  0
    6.0000   -2.5981    0.0000 N   0  0  0  0  0  0  0  0  0  0  0  0
    7.5000   -2.5981    0.0000 O   0  0  0  0  0  0  0  0  0  0  0  0
  1  2  2  0
  2  3  1  0
  3  4  2  3
  4  5  1  0
  5  6  2  0
  6  7  1  0
  7  8  2  0
  8  9  1  0
  9 10  1  0
 10 11  2  0
 11 12  1  0
 12 13  1  0
 13 14  2  0
 13 15  2  0
 13 16  1  0
 16 17  2  0
 17 18  1  0
 18 19  2  0
 19 20  1  0
 20 21  2  0
  9 22  2  0
  2 23  1  0
 23 24  1  0
 22  5  1  0
 12  8  1  0
 21 16  1  0
M  END
>  <molecule_chembl_id>  (1232) 
CHEMBL2048746

>  <canonical_smiles>  (1232) 
O=C(C=Cc1ccc2c(ccn2S(=O)(=O)c2ccccc2)c1)NO

>  <pchembl_value_mean>  (1232) 
8.4

>  <document_chembl_id>  (1232) 
CHEMBL2046324

$$$$

     RDKit          2D

 29 33  0  0  0  0  0  0  0  0999 V2000
    7.8037  -13.5163    0.0000 O   0  0  0  0  0  0  0  0  0  0  0  0
    6.3037  -13.5163    0.0000 C   0  0  0  0  0  0  0  0  0  0  0  0
    5.5537  -14.8154    0.0000 N   0  0  0  0  0  0  0  0  0  0  0  0
    6.3037  -16.1144    0.0000 O   0  0  0  0  0  0  0  0  0  0  0  0
    5.5537  -12.2173    0.0000 C   0  0  0  0  0  0  0  0  0  0  0  0
    4.0537  -12.2173    0.0000 C   0  0  0  0  0  0  0  0  0  0  0  0
    3.3037  -10.9182    0.0000 N   0  0  0  0  0  0  0  0  0  0  0  0
    4.0537   -9.6192    0.0000 C   0  0  0  0  0  0  0  0  0  0  0  0
    3.3037   -8.3202    0.0000 N   0  0  0  0  0  0  0  0  0  0  0  0
    1.8119   -8.1634    0.0000 C   0  0  0  0  0  0  0  0  0  0  0  0
    1.5000   -6.6962    0.0000 C   0  0  0  0  0  0  0  0  0  0  0  0
    2.7990   -5.9462    0.0000 C   0  0  0  0  0  0  0  0  0  0  0  0
    3.9138   -6.9498    0.0000 C   0  0  0  0  0  0  0  0  0  0  0  0
    1.5000   -5.1962    0.0000 C   0  0  0  0  0  0  0  0  0  0  0  0
    0.7500   -3.8971    0.0000 N   0  0  0  0  0  0  0  0  0  0  0  0
    1.5000   -2.5981    0.0000 C   0  0  0  0  0  0  0  0  0  0  0  0
    0.7500   -1.2990    0.0000 C   0  0  0  0  0  0  0  0  0  0  0  0
    1.5000    0.0000    0.0000 C   0  0  0  0  0  0  0  0  0  0  0  0
    0.7500    1.2990    0.0000 C   0  0  0  0  0  0  0  0  0  0  0  0
   -0.7500    1.2990    0.0000 C   0  0  0  0  0  0  0  0  0  0  0  0
   -1.5000    2.5981    0.0000 C   0  0  0  0  0  0  0  0  0  0  0  0
   -3.0000    2.5981    0.0000 C   0  0  0  0  0  0  0  0  0  0  0  0
   -3.7500    3.8971    0.0000 F   0  0  0  0  0  0  0  0  0  0  0  0
   -3.7500    1.2990    0.0000 C   0  0  0  0  0  0  0  0  0  0  0  0
   -3.0000    0.0000    0.0000 C   0  0  0  0  0  0  0  0  0  0  0  0
   -1.5000    0.0000    0.0000 C   0  0  0  0  0  0  0  0  0  0  0  0
   -0.7500   -1.2990    0.0000 N   0  0  0  0  0  0  0  0  0  0  0  0
    5.5537   -9.6192    0.0000 N   0  0  0  0  0  0  0  0  0  0  0  0
    6.3037  -10.9182    0.0000 C   0  0  0  0  0  0  0  0  0  0  0  0
  1  2  2  0
  2  3  1  0
  3  4  1  0
  2  5  1  0
  5  6  2  0
  6  7  1  0
  7  8  2  0
  8  9  1  0
  9 10  1  0
 10 11  1  0
 11 12  1  0
 12 13  1  0
 12 14  1  0
 14 15  1  0
 15 16  1  0
 16 17  1  0
 17 18  2  0
 18 19  1  0
 19 20  2  0
 20 21  1  0
 21 22  2  0
 22 23  1  0
 22 24  1  0
 24 25  2  0
 25 26  1  0
 26 27  2  0
  8 28  1  0
 28 29  2  0
 29  5  1  0
 13  9  1  0
 27 17  1  0
 14 11  1  0
 26 20  1  0
M  END
>  <molecule_chembl_id>  (1233) 
CHEMBL1801250

>  <canonical_smiles>  (1233) 
O=C(NO)c1cnc(N2CC3C(C2)C3NCc2ccc3cc(F)ccc3n2)nc1

>  <pchembl_value_mean>  (1233) 
8.4

>  <document_chembl_id>  (1233) 
CHEMBL1800056

$$$$

     RDKit          2D

 46 50  0  0  0  0  0  0  0  0999 V2000
    3.7500   -1.2990    0.0000 C   0  0  0  0  0  0  0  0  0  0  0  0
    3.0000    0.0000    0.0000 O   0  0  0  0  0  0  0  0  0  0  0  0
    1.5000    0.0000    0.0000 C   0  0  0  0  0  0  0  0  0  0  0  0
    0.7500   -1.2990    0.0000 C   0  0  0  0  0  0  0  0  0  0  0  0
   -0.7500   -1.2990    0.0000 C   0  0  0  0  0  0  0  0  0  0  0  0
   -1.5000    0.0000    0.0000 C   0  0  0  0  0  0  0  0  0  0  0  0
   -2.9672    0.3119    0.0000 N   0  0  0  0  0  0  0  0  0  0  0  0
   -3.1240    1.8037    0.0000 C   0  0  0  0  0  0  0  0  0  0  0  0
   -4.4231    2.5537    0.0000 C   0  0  0  0  0  0  0  0  0  0  0  0
   -1.7537    2.4138    0.0000 C   0  0  0  0  0  0  0  0  0  0  0  0
   -1.4418    3.8810    0.0000 C   0  0  0  0  0  0  0  0  0  0  0  0
   -2.5565    4.8847    0.0000 C   0  0  0  0  0  0  0  0  0  0  0  0
   -3.9831    4.4211    0.0000 O   0  0  0  0  0  0  0  0  0  0  0  0
   -2.2447    6.3519    0.0000 N   0  0  0  0  0  0  0  0  0  0  0  0
   -3.3594    7.3556    0.0000 C   0  0  0  0  0  0  0  0  0  0  0  0
   -3.0475    8.8228    0.0000 C   0  0  0  0  0  0  0  0  0  0  0  0
   -4.1622    9.8265    0.0000 C   0  0  0  0  0  0  0  0  0  0  0  0
   -3.8504   11.2937    0.0000 C   0  0  0  0  0  0  0  0  0  0  0  0
   -4.9651   12.2974    0.0000 C   0  0  0  0  0  0  0  0  0  0  0  0
   -4.6532   13.7646    0.0000 C   0  0  0  0  0  0  0  0  0  0  0  0
   -5.7679   14.7683    0.0000 C   0  0  0  0  0  0  0  0  0  0  0  0
   -7.1945   14.3048    0.0000 O   0  0  0  0  0  0  0  0  0  0  0  0
   -5.4561   16.2356    0.0000 N   0  0  0  0  0  0  0  0  0  0  0  0
   -6.5708   17.2393    0.0000 O   0  0  0  0  0  0  0  0  0  0  0  0
   -4.7860    6.8921    0.0000 C   0  0  0  0  0  0  0  0  0  0  0  0
   -5.0978    5.4248    0.0000 O   0  0  0  0  0  0  0  0  0  0  0  0
   -5.9007    7.8958    0.0000 N   0  0  0  0  0  0  0  0  0  0  0  0
   -7.3273    7.4322    0.0000 C   0  0  0  0  0  0  0  0  0  0  0  0
   -8.4420    8.4359    0.0000 C   0  0  0  0  0  0  0  0  0  0  0  0
   -9.8686    7.9724    0.0000 C   0  0  0  0  0  0  0  0  0  0  0  0
  -10.3321    6.5458    0.0000 C   0  0  0  0  0  0  0  0  0  0  0  0
   -9.4504    5.3323    0.0000 C   0  0  0  0  0  0  0  0  0  0  0  0
  -10.0605    3.9620    0.0000 C   0  0  0  0  0  0  0  0  0  0  0  0
   -9.1789    2.7485    0.0000 C   0  0  0  0  0  0  0  0  0  0  0  0
   -7.6871    2.9052    0.0000 C   0  0  0  0  0  0  0  0  0  0  0  0
   -7.0770    4.2756    0.0000 C   0  0  0  0  0  0  0  0  0  0  0  0
   -7.9586    5.4891    0.0000 C   0  0  0  0  0  0  0  0  0  0  0  0
  -11.8321    6.5458    0.0000 N   0  0  0  0  0  0  0  0  0  0  0  0
  -12.2956    7.9724    0.0000 C   0  0  0  0  0  0  0  0  0  0  0  0
  -13.6660    8.5825    0.0000 C   0  0  0  0  0  0  0  0  0  0  0  0
  -13.8227   10.0743    0.0000 C   0  0  0  0  0  0  0  0  0  0  0  0
  -12.6092   10.9560    0.0000 C   0  0  0  0  0  0  0  0  0  0  0  0
  -11.2389   10.3459    0.0000 C   0  0  0  0  0  0  0  0  0  0  0  0
  -11.0821    8.8541    0.0000 C   0  0  0  0  0  0  0  0  0  0  0  0
   -0.7500    1.2990    0.0000 C   0  0  0  0  0  0  0  0  0  0  0  0
    0.7500    1.2990    0.0000 C   0  0  0  0  0  0  0  0  0  0  0  0
  1  2  1  0
  2  3  1  0
  3  4  2  0
  4  5  1  0
  5  6  2  0
  6  7  1  0
  7  8  1  0
  8  9  1  0
  8 10  2  0
 10 11  1  0
 11 12  1  0
 12 13  2  0
 12 14  1  0
 14 15  1  0
 15 16  1  0
 16 17  1  0
 17 18  1  0
 18 19  1  0
 19 20  1  0
 20 21  1  0
 21 22  2  0
 21 23  1  0
 23 24  1  0
 15 25  1  0
 25 26  2  0
 25 27  1  0
 27 28  1  0
 28 29  1  0
 29 30  1  0
 30 31  2  0
 31 32  1  0
 32 33  2  0
 33 34  1  0
 34 35  2  0
 35 36  1  0
 36 37  2  0
 31 38  1  0
 38 39  1  0
 39 40  2  0
 40 41  1  0
 41 42  2  0
 42 43  1  0
 43 44  2  0
 10 45  1  0
 45 46  2  0
 46  3  1  0
 45  6  1  0
 44 30  1  0
 37 32  1  0
 44 39  1  0
M  END
>  <molecule_chembl_id>  (1234) 
CHEMBL216641

>  <canonical_smiles>  (1234) 
COc1ccc2[nH]c(C)c(CC(=O)NC(CCCCCC(=O)NO)C(=O)NCCc3c(-c4ccccc4)[nH]c4ccccc34)c2c1

>  <pchembl_value_mean>  (1234) 
8.4

>  <document_chembl_id>  (1234) 
CHEMBL1137275

$$$$

     RDKit          2D

 45 50  0  0  0  0  0  0  0  0999 V2000
   10.7824  -15.8378    0.0000 C   0  0  0  0  0  0  0  0  0  0  0  0
    9.4121  -15.2277    0.0000 C   0  0  0  0  0  0  0  0  0  0  0  0
    9.2553  -13.7359    0.0000 C   0  0  0  0  0  0  0  0  0  0  0  0
   10.4688  -12.8543    0.0000 O   0  0  0  0  0  0  0  0  0  0  0  0
    7.8850  -13.1258    0.0000 C   0  0  0  0  0  0  0  0  0  0  0  0
    7.7282  -11.6340    0.0000 C   0  0  0  0  0  0  0  0  0  0  0  0
    6.3579  -11.0239    0.0000 C   0  0  0  0  0  0  0  0  0  0  0  0
    6.2011   -9.5322    0.0000 C   0  0  0  0  0  0  0  0  0  0  0  0
    4.8308   -8.9221    0.0000 C   0  0  0  0  0  0  0  0  0  0  0  0
    4.6740   -7.4303    0.0000 C   0  0  0  0  0  0  0  0  0  0  0  0
    5.8875   -6.5486    0.0000 N   0  0  0  0  0  0  0  0  0  0  0  0
    7.2578   -7.1587    0.0000 C   0  0  0  0  0  0  0  0  0  0  0  0
    7.4146   -8.6505    0.0000 O   0  0  0  0  0  0  0  0  0  0  0  0
    8.4713   -6.2770    0.0000 C   0  0  0  0  0  0  0  0  0  0  0  0
    9.0814   -4.9067    0.0000 C   0  0  0  0  0  0  0  0  0  0  0  0
    9.9631   -6.1202    0.0000 C   0  0  0  0  0  0  0  0  0  0  0  0
   10.1199   -7.6120    0.0000 C   0  0  0  0  0  0  0  0  0  0  0  0
   11.4902   -8.2221    0.0000 C   0  0  0  0  0  0  0  0  0  0  0  0
   12.7038   -7.3404    0.0000 N   0  0  0  0  0  0  0  0  0  0  0  0
   14.0741   -7.9505    0.0000 C   0  0  0  0  0  0  0  0  0  0  0  0
   14.2309   -9.4423    0.0000 C   0  0  0  0  0  0  0  0  0  0  0  0
   13.0173  -10.3240    0.0000 C   0  0  0  0  0  0  0  0  0  0  0  0
   13.1741  -11.8158    0.0000 C   0  0  0  0  0  0  0  0  0  0  0  0
   14.5445  -12.4259    0.0000 C   0  0  0  0  0  0  0  0  0  0  0  0
   15.7580  -11.5442    0.0000 N   0  0  0  0  0  0  0  0  0  0  0  0
   15.6012  -10.0524    0.0000 C   0  0  0  0  0  0  0  0  0  0  0  0
   12.5470   -5.8487    0.0000 C   0  0  0  0  0  0  0  0  0  0  0  0
   11.1766   -5.2386    0.0000 C   0  0  0  0  0  0  0  0  0  0  0  0
    3.3037   -6.8202    0.0000 C   0  0  0  0  0  0  0  0  0  0  0  0
    2.0046   -7.5702    0.0000 N   0  0  0  0  0  0  0  0  0  0  0  0
    0.8899   -6.5665    0.0000 C   0  0  0  0  0  0  0  0  0  0  0  0
    1.5000   -5.1962    0.0000 C   0  0  0  0  0  0  0  0  0  0  0  0
    0.7500   -3.8971    0.0000 C   0  0  0  0  0  0  0  0  0  0  0  0
    1.5000   -2.5981    0.0000 C   0  0  0  0  0  0  0  0  0  0  0  0
    0.7500   -1.2990    0.0000 C   0  0  0  0  0  0  0  0  0  0  0  0
    1.5000    0.0000    0.0000 C   0  0  0  0  0  0  0  0  0  0  0  0
    0.7500    1.2990    0.0000 C   0  0  0  0  0  0  0  0  0  0  0  0
   -0.7500    1.2990    0.0000 C   0  0  0  0  0  0  0  0  0  0  0  0
   -1.5000    0.0000    0.0000 C   0  0  0  0  0  0  0  0  0  0  0  0
   -0.7500   -1.2990    0.0000 C   0  0  0  0  0  0  0  0  0  0  0  0
   -1.5000   -2.5981    0.0000 N   0  0  0  0  0  0  0  0  0  0  0  0
   -0.7500   -3.8971    0.0000 C   0  0  0  0  0  0  0  0  0  0  0  0
   -1.5000   -5.1962    0.0000 O   0  0  0  0  0  0  0  0  0  0  0  0
   -3.0000   -5.1962    0.0000 C   0  0  0  0  0  0  0  0  0  0  0  0
    2.9918   -5.3529    0.0000 N   0  0  0  0  0  0  0  0  0  0  0  0
  1  2  1  0
  2  3  1  0
  3  4  2  0
  3  5  1  0
  5  6  1  0
  6  7  1  0
  7  8  1  0
  8  9  1  0
  9 10  1  0
 10 11  1  0
 11 12  1  0
 12 13  2  0
 12 14  1  0
 14 15  1  0
 15 16  1  0
 16 17  1  0
 17 18  1  0
 18 19  1  0
 19 20  1  0
 20 21  1  0
 21 22  2  0
 22 23  1  0
 23 24  2  0
 24 25  1  0
 25 26  2  0
 19 27  1  0
 27 28  1  0
 10 29  1  0
 29 30  2  0
 30 31  1  0
 31 32  2  0
 32 33  1  0
 33 34  2  0
 34 35  1  0
 35 36  2  0
 36 37  1  0
 37 38  2  0
 38 39  1  0
 39 40  2  0
 40 41  1  0
 41 42  2  0
 42 43  1  0
 43 44  1  0
 32 45  1  0
 16 14  1  0
 26 21  1  0
 45 29  1  0
 28 16  1  0
 42 33  1  0
 40 35  1  0
M  END
>  <molecule_chembl_id>  (1235) 
CHEMBL4639206

>  <canonical_smiles>  (1235) 
CCC(=O)CCCCCC(NC(=O)C1CC12CCN(Cc1cccnc1)CC2)c1ncc(-c2cc3ccccc3nc2OC)[nH]1

>  <pchembl_value_mean>  (1235) 
8.41

>  <document_chembl_id>  (1235) 
CHEMBL4622849

$$$$

     RDKit          2D

 35 35  0  0  0  0  0  0  0  0999 V2000
    6.0944   -1.2990    0.0000 C   0  0  0  0  0  0  0  0  0  0  0  0
    5.3444    0.0000    0.0000 C   0  0  0  0  0  0  0  0  0  0  0  0
    3.8444    0.0000    0.0000 C   0  0  0  0  0  0  0  0  0  0  0  0
    3.5517   -1.4712    0.0000 N   0  0  0  0  0  0  0  0  0  0  0  0
    2.7184   -2.7184    0.0000 C   0  0  0  0  0  0  0  0  0  0  0  0
    3.7790   -3.7790    0.0000 O   0  0  0  0  0  0  0  0  0  0  0  0
    1.4712   -3.5517    0.0000 C   0  0  0  0  0  0  0  0  0  0  0  0
    2.0452   -4.9376    0.0000 C   0  0  0  0  0  0  0  0  0  0  0  0
    1.1321   -6.1276    0.0000 S   0  0  0  0  0  0  0  0  0  0  0  0
   -0.0000   -3.8444    0.0000 N   0  0  0  0  0  0  0  0  0  0  0  0
   -1.4712   -3.5517    0.0000 C   0  0  0  0  0  0  0  0  0  0  0  0
   -2.0452   -4.9376    0.0000 O   0  0  0  0  0  0  0  0  0  0  0  0
   -2.7184   -2.7184    0.0000 C   0  0  0  0  0  0  0  0  0  0  0  0
   -3.7790   -3.7790    0.0000 C   0  0  0  0  0  0  0  0  0  0  0  0
   -5.2279   -3.3908    0.0000 C   0  0  0  0  0  0  0  0  0  0  0  0
   -3.3908   -5.2279    0.0000 C   0  0  0  0  0  0  0  0  0  0  0  0
   -3.5517   -1.4712    0.0000 N   0  0  0  0  0  0  0  0  0  0  0  0
   -3.8444    0.0000    0.0000 C   0  0  0  0  0  0  0  0  0  0  0  0
   -5.3444    0.0000    0.0000 O   0  0  0  0  0  0  0  0  0  0  0  0
   -3.5517    1.4712    0.0000 C   0  0  0  0  0  0  0  0  0  0  0  0
   -2.7184    2.7184    0.0000 C   0  0  0  0  0  0  0  0  0  0  0  0
   -3.7790    3.7790    0.0000 C   0  0  0  0  0  0  0  0  0  0  0  0
   -3.3908    5.2279    0.0000 C   0  0  0  0  0  0  0  0  0  0  0  0
   -4.4515    6.2886    0.0000 C   0  0  0  0  0  0  0  0  0  0  0  0
   -4.0632    7.7375    0.0000 S   0  0  0  0  0  0  0  0  0  0  0  0
   -1.4712    3.5517    0.0000 O   0  0  0  0  0  0  0  0  0  0  0  0
    0.0000    3.8444    0.0000 C   0  0  0  0  0  0  0  0  0  0  0  0
    0.0000    5.3444    0.0000 O   0  0  0  0  0  0  0  0  0  0  0  0
    1.4712    3.5517    0.0000 C   0  0  0  0  0  0  0  0  0  0  0  0
    2.0452    4.9376    0.0000 C   0  0  0  0  0  0  0  0  0  0  0  0
    3.5324    5.1333    0.0000 C   0  0  0  0  0  0  0  0  0  0  0  0
    1.1321    6.1276    0.0000 C   0  0  0  0  0  0  0  0  0  0  0  0
    2.7184    2.7184    0.0000 N   0  0  0  0  0  0  0  0  0  0  0  0
    3.5517    1.4712    0.0000 C   0  0  0  0  0  0  0  0  0  0  0  0
    4.9376    2.0452    0.0000 O   0  0  0  0  0  0  0  0  0  0  0  0
  1  2  1  0
  2  3  2  3
  3  4  1  0
  4  5  1  0
  5  6  2  0
  5  7  1  0
  7  8  1  0
  8  9  1  0
  7 10  1  0
 10 11  1  0
 11 12  2  0
 11 13  1  0
 13 14  1  0
 14 15  1  0
 14 16  1  0
 13 17  1  0
 17 18  1  0
 18 19  2  0
 18 20  1  0
 20 21  1  0
 21 22  1  0
 22 23  2  3
 23 24  1  0
 24 25  1  0
 21 26  1  0
 26 27  1  0
 27 28  2  0
 27 29  1  0
 29 30  1  0
 30 31  1  0
 30 32  1  0
 29 33  1  0
 33 34  1  0
 34 35  2  0
 34  3  1  0
M  END
>  <molecule_chembl_id>  (1236) 
CHEMBL4061025

>  <canonical_smiles>  (1236) 
CC=C1NC(=O)C(CS)NC(=O)C(C(C)C)NC(=O)CC(C=CCS)OC(=O)C(C(C)C)NC1=O

>  <pchembl_value_mean>  (1236) 
8.41

>  <document_chembl_id>  (1236) 
CHEMBL4033774

$$$$

     RDKit          2D

 40 43  0  0  0  0  0  0  0  0999 V2000
    3.0000  -15.5885    0.0000 O   0  0  0  0  0  0  0  0  0  0  0  0
    3.7500  -14.2894    0.0000 C   0  0  0  0  0  0  0  0  0  0  0  0
    3.0000  -12.9904    0.0000 N   0  0  0  0  0  0  0  0  0  0  0  0
    1.5000  -12.9904    0.0000 C   0  0  0  0  0  0  0  0  0  0  0  0
    0.7500  -11.6913    0.0000 C   0  0  0  0  0  0  0  0  0  0  0  0
    1.5000  -10.3923    0.0000 C   0  0  0  0  0  0  0  0  0  0  0  0
    0.7500   -9.0933    0.0000 C   0  0  0  0  0  0  0  0  0  0  0  0
    1.5000   -7.7942    0.0000 C   0  0  0  0  0  0  0  0  0  0  0  0
    0.7500   -6.4952    0.0000 C   0  0  0  0  0  0  0  0  0  0  0  0
    1.5000   -5.1962    0.0000 C   0  0  0  0  0  0  0  0  0  0  0  0
    0.7500   -3.8971    0.0000 S   0  0  0  0  0  0  0  0  0  0  0  0
    1.5000   -2.5981    0.0000 S   0  0  0  0  0  0  0  0  0  0  0  0
    0.7500   -1.2990    0.0000 C   0  0  0  0  0  0  0  0  0  0  0  0
    1.5000    0.0000    0.0000 C   0  0  0  0  0  0  0  0  0  0  0  0
    0.7500    1.2990    0.0000 C   0  0  0  0  0  0  0  0  0  0  0  0
   -0.7500    1.2990    0.0000 C   0  0  0  0  0  0  0  0  0  0  0  0
   -1.5000    0.0000    0.0000 C   0  0  0  0  0  0  0  0  0  0  0  0
   -0.7500   -1.2990    0.0000 N   0  0  0  0  0  0  0  0  0  0  0  0
    0.7500  -14.2894    0.0000 C   0  0  0  0  0  0  0  0  0  0  0  0
   -0.7500  -14.2894    0.0000 O   0  0  0  0  0  0  0  0  0  0  0  0
    1.5000  -15.5885    0.0000 N   0  0  0  0  0  0  0  0  0  0  0  0
    0.7500  -16.8875    0.0000 C   0  0  0  0  0  0  0  0  0  0  0  0
    1.3601  -18.2578    0.0000 N   0  0  0  0  0  0  0  0  0  0  0  0
    0.2454  -19.2615    0.0000 C   0  0  0  0  0  0  0  0  0  0  0  0
    0.4022  -20.7533    0.0000 C   0  0  0  0  0  0  0  0  0  0  0  0
   -0.8113  -21.6350    0.0000 C   0  0  0  0  0  0  0  0  0  0  0  0
   -0.6546  -23.1268    0.0000 C   0  0  0  0  0  0  0  0  0  0  0  0
    0.7158  -23.7369    0.0000 C   0  0  0  0  0  0  0  0  0  0  0  0
    1.9293  -22.8552    0.0000 C   0  0  0  0  0  0  0  0  0  0  0  0
    1.7725  -21.3634    0.0000 C   0  0  0  0  0  0  0  0  0  0  0  0
   -1.0537  -18.5115    0.0000 C   0  0  0  0  0  0  0  0  0  0  0  0
   -0.7418  -17.0443    0.0000 S   0  0  0  0  0  0  0  0  0  0  0  0
    5.2500  -14.2894    0.0000 O   0  0  0  0  0  0  0  0  0  0  0  0
    6.0000  -15.5885    0.0000 C   0  0  0  0  0  0  0  0  0  0  0  0
    7.5000  -15.5885    0.0000 C   0  0  0  0  0  0  0  0  0  0  0  0
    8.2500  -16.8875    0.0000 C   0  0  0  0  0  0  0  0  0  0  0  0
    9.7500  -16.8875    0.0000 C   0  0  0  0  0  0  0  0  0  0  0  0
   10.5000  -15.5885    0.0000 C   0  0  0  0  0  0  0  0  0  0  0  0
    9.7500  -14.2894    0.0000 C   0  0  0  0  0  0  0  0  0  0  0  0
    8.2500  -14.2894    0.0000 C   0  0  0  0  0  0  0  0  0  0  0  0
  1  2  2  0
  2  3  1  0
  3  4  1  0
  4  5  1  0
  5  6  1  0
  6  7  1  0
  7  8  1  0
  8  9  1  0
  9 10  1  0
 10 11  1  0
 11 12  1  0
 12 13  1  0
 13 14  2  0
 14 15  1  0
 15 16  2  0
 16 17  1  0
 17 18  2  0
  4 19  1  0
 19 20  2  0
 19 21  1  0
 21 22  1  0
 22 23  2  0
 23 24  1  0
 24 25  1  0
 25 26  2  0
 26 27  1  0
 27 28  2  0
 28 29  1  0
 29 30  2  0
 24 31  2  0
 31 32  1  0
  2 33  1  0
 33 34  1  0
 34 35  1  0
 35 36  2  0
 36 37  1  0
 37 38  2  0
 38 39  1  0
 39 40  2  0
 18 13  1  0
 32 22  1  0
 40 35  1  0
 30 25  1  0
M  END
>  <molecule_chembl_id>  (1237) 
CHEMBL2022825

>  <canonical_smiles>  (1237) 
O=C(NC(CCCCCCSSc1ccccn1)C(=O)Nc1nc(-c2ccccc2)cs1)OCc1ccccc1

>  <pchembl_value_mean>  (1237) 
8.41

>  <document_chembl_id>  (1237) 
CHEMBL2021837

$$$$

     RDKit          2D

 30 32  0  0  0  0  0  0  0  0999 V2000
    6.0000   -5.1962    0.0000 C   0  0  0  0  0  0  0  0  0  0  0  0
    5.2500   -3.8971    0.0000 O   0  0  0  0  0  0  0  0  0  0  0  0
    3.7500   -3.8971    0.0000 C   0  0  0  0  0  0  0  0  0  0  0  0
    3.0000   -5.1962    0.0000 C   0  0  0  0  0  0  0  0  0  0  0  0
    1.5000   -5.1962    0.0000 C   0  0  0  0  0  0  0  0  0  0  0  0
    0.7500   -3.8971    0.0000 C   0  0  0  0  0  0  0  0  0  0  0  0
    1.5000   -2.5981    0.0000 C   0  0  0  0  0  0  0  0  0  0  0  0
    0.7500   -1.2990    0.0000 C   0  0  0  0  0  0  0  0  0  0  0  0
    1.5000    0.0000    0.0000 C   0  0  0  0  0  0  0  0  0  0  0  0
    0.7500    1.2990    0.0000 C   0  0  0  0  0  0  0  0  0  0  0  0
   -0.7500    1.2990    0.0000 C   0  0  0  0  0  0  0  0  0  0  0  0
   -1.7537    2.4138    0.0000 C   0  0  0  0  0  0  0  0  0  0  0  0
   -1.4418    3.8810    0.0000 N   0  0  0  0  0  0  0  0  0  0  0  0
   -2.5565    4.8847    0.0000 C   0  0  0  0  0  0  0  0  0  0  0  0
   -3.9831    4.4211    0.0000 O   0  0  0  0  0  0  0  0  0  0  0  0
   -2.2447    6.3519    0.0000 C   0  0  0  0  0  0  0  0  0  0  0  0
   -3.3594    7.3556    0.0000 C   0  0  0  0  0  0  0  0  0  0  0  0
   -3.0475    8.8228    0.0000 C   0  0  0  0  0  0  0  0  0  0  0  0
   -4.1622    9.8265    0.0000 C   0  0  0  0  0  0  0  0  0  0  0  0
   -3.8504   11.2937    0.0000 C   0  0  0  0  0  0  0  0  0  0  0  0
   -4.9651   12.2974    0.0000 C   0  0  0  0  0  0  0  0  0  0  0  0
   -4.6532   13.7646    0.0000 C   0  0  0  0  0  0  0  0  0  0  0  0
   -3.2266   14.2282    0.0000 O   0  0  0  0  0  0  0  0  0  0  0  0
   -5.7679   14.7683    0.0000 N   0  0  0  0  0  0  0  0  0  0  0  0
   -5.4561   16.2356    0.0000 O   0  0  0  0  0  0  0  0  0  0  0  0
   -3.1240    1.8037    0.0000 N   0  0  0  0  0  0  0  0  0  0  0  0
   -2.9672    0.3119    0.0000 N   0  0  0  0  0  0  0  0  0  0  0  0
   -1.5000    0.0000    0.0000 C   0  0  0  0  0  0  0  0  0  0  0  0
   -0.7500   -1.2990    0.0000 C   0  0  0  0  0  0  0  0  0  0  0  0
    3.0000   -2.5981    0.0000 C   0  0  0  0  0  0  0  0  0  0  0  0
  1  2  1  0
  2  3  1  0
  3  4  2  0
  4  5  1  0
  5  6  2  0
  6  7  1  0
  7  8  1  0
  8  9  2  0
  9 10  1  0
 10 11  2  0
 11 12  1  0
 12 13  1  0
 13 14  1  0
 14 15  2  0
 14 16  1  0
 16 17  1  0
 17 18  1  0
 18 19  1  0
 19 20  1  0
 20 21  1  0
 21 22  1  0
 22 23  2  0
 22 24  1  0
 24 25  1  0
 12 26  2  0
 26 27  1  0
 27 28  1  0
 28 29  2  0
  7 30  2  0
 30  3  1  0
 29  8  1  0
 28 11  1  0
M  END
>  <molecule_chembl_id>  (1238) 
CHEMBL4790137

>  <canonical_smiles>  (1238) 
COc1cccc(-c2ccc3c(NC(=O)CCCCCCC(=O)NO)n[nH]c3c2)c1

>  <pchembl_value_mean>  (1238) 
8.41

>  <document_chembl_id>  (1238) 
CHEMBL4765277

$$$$

     RDKit          2D

 38 43  0  0  0  0  0  0  0  0999 V2000
  -11.8635   16.1281    0.0000 C   0  0  0  0  0  0  0  0  0  0  0  0
  -10.5644   15.3781    0.0000 C   0  0  0  0  0  0  0  0  0  0  0  0
  -10.5644   13.8781    0.0000 C   0  0  0  0  0  0  0  0  0  0  0  0
  -11.8635   13.1281    0.0000 O   0  0  0  0  0  0  0  0  0  0  0  0
   -9.2654   13.1281    0.0000 C   0  0  0  0  0  0  0  0  0  0  0  0
   -9.2654   11.6281    0.0000 C   0  0  0  0  0  0  0  0  0  0  0  0
   -7.9664   10.8781    0.0000 C   0  0  0  0  0  0  0  0  0  0  0  0
   -7.9664    9.3781    0.0000 C   0  0  0  0  0  0  0  0  0  0  0  0
   -6.6673    8.6281    0.0000 C   0  0  0  0  0  0  0  0  0  0  0  0
   -6.6673    7.1281    0.0000 C   0  0  0  0  0  0  0  0  0  0  0  0
   -7.9664    6.3781    0.0000 N   0  0  0  0  0  0  0  0  0  0  0  0
   -9.2654    7.1281    0.0000 C   0  0  0  0  0  0  0  0  0  0  0  0
   -9.2654    8.6281    0.0000 O   0  0  0  0  0  0  0  0  0  0  0  0
  -10.5644    6.3781    0.0000 C   0  0  0  0  0  0  0  0  0  0  0  0
  -11.3144    5.0791    0.0000 C   0  0  0  0  0  0  0  0  0  0  0  0
  -12.0644    6.3781    0.0000 C   0  0  0  0  0  0  0  0  0  0  0  0
  -12.0644    7.8781    0.0000 C   0  0  0  0  0  0  0  0  0  0  0  0
  -13.3635    8.6281    0.0000 C   0  0  0  0  0  0  0  0  0  0  0  0
  -14.6625    7.8781    0.0000 N   0  0  0  0  0  0  0  0  0  0  0  0
  -15.9616    8.6281    0.0000 C   0  0  0  0  0  0  0  0  0  0  0  0
  -14.6625    6.3781    0.0000 C   0  0  0  0  0  0  0  0  0  0  0  0
  -13.3635    5.6281    0.0000 C   0  0  0  0  0  0  0  0  0  0  0  0
   -5.3683    6.3781    0.0000 C   0  0  0  0  0  0  0  0  0  0  0  0
   -3.9980    6.9882    0.0000 N   0  0  0  0  0  0  0  0  0  0  0  0
   -2.9943    5.8735    0.0000 C   0  0  0  0  0  0  0  0  0  0  0  0
   -3.7443    4.5745    0.0000 C   0  0  0  0  0  0  0  0  0  0  0  0
   -3.1342    3.2042    0.0000 C   0  0  0  0  0  0  0  0  0  0  0  0
   -4.0159    1.9906    0.0000 C   0  0  0  0  0  0  0  0  0  0  0  0
   -3.4057    0.6203    0.0000 C   0  0  0  0  0  0  0  0  0  0  0  0
   -1.9140    0.4635    0.0000 C   0  0  0  0  0  0  0  0  0  0  0  0
   -1.0323    1.6771    0.0000 C   0  0  0  0  0  0  0  0  0  0  0  0
   -1.6424    3.0474    0.0000 C   0  0  0  0  0  0  0  0  0  0  0  0
    0.3943    1.2135    0.0000 C   0  0  0  0  0  0  0  0  0  0  0  0
    1.2760    0.0000    0.0000 C   0  0  0  0  0  0  0  0  0  0  0  0
    0.3943   -1.2135    0.0000 C   0  0  0  0  0  0  0  0  0  0  0  0
   -1.0323   -0.7500    0.0000 C   0  0  0  0  0  0  0  0  0  0  0  0
   -1.0323    0.7500    0.0000 C   0  0  0  0  0  0  0  0  0  0  0  0
   -5.2115    4.8863    0.0000 N   0  0  0  0  0  0  0  0  0  0  0  0
  1  2  1  0
  2  3  1  0
  3  4  2  0
  3  5  1  0
  5  6  1  0
  6  7  1  0
  7  8  1  0
  8  9  1  0
  9 10  1  0
 10 11  1  0
 11 12  1  0
 12 13  2  0
 12 14  1  0
 14 15  1  0
 15 16  1  0
 16 17  1  0
 17 18  1  0
 18 19  1  0
 19 20  1  0
 19 21  1  0
 21 22  1  0
 10 23  1  0
 23 24  2  0
 24 25  1  0
 25 26  2  0
 26 27  1  0
 27 28  2  0
 28 29  1  0
 29 30  2  0
 30 31  1  0
 31 32  2  0
 31 33  1  0
 33 34  1  0
 34 35  1  0
 35 36  1  0
 36 37  1  0
 26 38  1  0
 16 14  1  0
 38 23  1  0
 22 16  1  0
 32 27  1  0
 37 33  1  0
 36 30  1  0
M  END
>  <molecule_chembl_id>  (1239) 
CHEMBL4859950

>  <canonical_smiles>  (1239) 
CCC(=O)CCCCCC(NC(=O)C1CC12CCN(C)CC2)c1ncc(-c2ccc3c(c2)C2CCC3C2)[nH]1

>  <pchembl_value_mean>  (1239) 
8.43

>  <document_chembl_id>  (1239) 
CHEMBL4811291

$$$$

     RDKit          2D

 29 31  0  0  0  0  0  0  0  0999 V2000
  -10.7086   -9.9084    0.0000 O   0  0  0  0  0  0  0  0  0  0  0  0
   -9.5939  -10.9121    0.0000 C   0  0  0  0  0  0  0  0  0  0  0  0
   -8.1673  -10.4486    0.0000 C   0  0  0  0  0  0  0  0  0  0  0  0
   -7.8555   -8.9814    0.0000 C   0  0  0  0  0  0  0  0  0  0  0  0
   -6.4289   -8.5179    0.0000 C   0  0  0  0  0  0  0  0  0  0  0  0
   -6.1170   -7.0506    0.0000 C   0  0  0  0  0  0  0  0  0  0  0  0
   -4.6904   -6.5871    0.0000 C   0  0  0  0  0  0  0  0  0  0  0  0
   -4.3786   -5.1199    0.0000 C   0  0  0  0  0  0  0  0  0  0  0  0
   -2.9520   -4.6564    0.0000 C   0  0  0  0  0  0  0  0  0  0  0  0
   -1.8373   -5.6601    0.0000 O   0  0  0  0  0  0  0  0  0  0  0  0
   -2.6401   -3.1891    0.0000 N   0  0  0  0  0  0  0  0  0  0  0  0
   -1.2135   -2.7256    0.0000 C   0  0  0  0  0  0  0  0  0  0  0  0
   -0.0000   -3.6073    0.0000 N   0  0  0  0  0  0  0  0  0  0  0  0
    1.2135   -2.7256    0.0000 N   0  0  0  0  0  0  0  0  0  0  0  0
    0.7500   -1.2990    0.0000 C   0  0  0  0  0  0  0  0  0  0  0  0
    1.5000    0.0000    0.0000 C   0  0  0  0  0  0  0  0  0  0  0  0
    0.7500    1.2990    0.0000 C   0  0  0  0  0  0  0  0  0  0  0  0
    1.5000    2.5981    0.0000 C   0  0  0  0  0  0  0  0  0  0  0  0
    3.0000    2.5981    0.0000 C   0  0  0  0  0  0  0  0  0  0  0  0
    3.7500    3.8971    0.0000 C   0  0  0  0  0  0  0  0  0  0  0  0
    3.0000    5.1962    0.0000 C   0  0  0  0  0  0  0  0  0  0  0  0
    3.7500    6.4952    0.0000 Cl  0  0  0  0  0  0  0  0  0  0  0  0
    1.5000    5.1962    0.0000 C   0  0  0  0  0  0  0  0  0  0  0  0
    0.7500    3.8971    0.0000 C   0  0  0  0  0  0  0  0  0  0  0  0
   -0.7500    1.2990    0.0000 C   0  0  0  0  0  0  0  0  0  0  0  0
   -1.5000    0.0000    0.0000 C   0  0  0  0  0  0  0  0  0  0  0  0
   -0.7500   -1.2990    0.0000 C   0  0  0  0  0  0  0  0  0  0  0  0
   -9.9058  -12.3794    0.0000 N   0  0  0  0  0  0  0  0  0  0  0  0
  -11.3324  -12.8429    0.0000 O   0  0  0  0  0  0  0  0  0  0  0  0
  1  2  2  0
  2  3  1  0
  3  4  1  0
  4  5  1  0
  5  6  1  0
  6  7  1  0
  7  8  1  0
  8  9  1  0
  9 10  2  0
  9 11  1  0
 11 12  1  0
 12 13  2  0
 13 14  1  0
 14 15  1  0
 15 16  2  0
 16 17  1  0
 17 18  1  0
 18 19  2  0
 19 20  1  0
 20 21  2  0
 21 22  1  0
 21 23  1  0
 23 24  2  0
 17 25  2  0
 25 26  1  0
 26 27  2  0
  2 28  1  0
 28 29  1  0
 27 12  1  0
 27 15  1  0
 24 18  1  0
M  END
>  <molecule_chembl_id>  (1240) 
CHEMBL4786350

>  <canonical_smiles>  (1240) 
O=C(CCCCCCC(=O)Nc1n[nH]c2cc(-c3ccc(Cl)cc3)ccc12)NO

>  <pchembl_value_mean>  (1240) 
8.44

>  <document_chembl_id>  (1240) 
CHEMBL4765277

$$$$

     RDKit          2D

 40 44  0  0  0  0  0  0  0  0999 V2000
   10.7824  -15.8378    0.0000 C   0  0  0  0  0  0  0  0  0  0  0  0
    9.4121  -15.2277    0.0000 C   0  0  0  0  0  0  0  0  0  0  0  0
    9.2553  -13.7359    0.0000 C   0  0  0  0  0  0  0  0  0  0  0  0
   10.4688  -12.8543    0.0000 O   0  0  0  0  0  0  0  0  0  0  0  0
    7.8850  -13.1258    0.0000 C   0  0  0  0  0  0  0  0  0  0  0  0
    7.7282  -11.6340    0.0000 C   0  0  0  0  0  0  0  0  0  0  0  0
    6.3579  -11.0239    0.0000 C   0  0  0  0  0  0  0  0  0  0  0  0
    6.2011   -9.5322    0.0000 C   0  0  0  0  0  0  0  0  0  0  0  0
    4.8308   -8.9221    0.0000 C   0  0  0  0  0  0  0  0  0  0  0  0
    4.6740   -7.4303    0.0000 C   0  0  0  0  0  0  0  0  0  0  0  0
    5.8875   -6.5486    0.0000 N   0  0  0  0  0  0  0  0  0  0  0  0
    7.2578   -7.1587    0.0000 C   0  0  0  0  0  0  0  0  0  0  0  0
    7.4146   -8.6505    0.0000 O   0  0  0  0  0  0  0  0  0  0  0  0
    8.4713   -6.2770    0.0000 C   0  0  0  0  0  0  0  0  0  0  0  0
    9.8417   -6.8871    0.0000 C   0  0  0  0  0  0  0  0  0  0  0  0
   11.0552   -6.0054    0.0000 C   0  0  0  0  0  0  0  0  0  0  0  0
   10.8984   -4.5137    0.0000 C   0  0  0  0  0  0  0  0  0  0  0  0
    9.5281   -3.9036    0.0000 C   0  0  0  0  0  0  0  0  0  0  0  0
    8.3145   -4.7852    0.0000 C   0  0  0  0  0  0  0  0  0  0  0  0
   12.3799   -4.7483    0.0000 C   0  0  0  0  0  0  0  0  0  0  0  0
   12.6146   -3.2668    0.0000 N   0  0  0  0  0  0  0  0  0  0  0  0
   13.8281   -2.3851    0.0000 C   0  0  0  0  0  0  0  0  0  0  0  0
   11.1330   -3.0321    0.0000 C   0  0  0  0  0  0  0  0  0  0  0  0
    3.3037   -6.8202    0.0000 C   0  0  0  0  0  0  0  0  0  0  0  0
    2.0046   -7.5702    0.0000 N   0  0  0  0  0  0  0  0  0  0  0  0
    0.8899   -6.5665    0.0000 C   0  0  0  0  0  0  0  0  0  0  0  0
    1.5000   -5.1962    0.0000 C   0  0  0  0  0  0  0  0  0  0  0  0
    0.7500   -3.8971    0.0000 C   0  0  0  0  0  0  0  0  0  0  0  0
    1.5000   -2.5981    0.0000 C   0  0  0  0  0  0  0  0  0  0  0  0
    0.7500   -1.2990    0.0000 C   0  0  0  0  0  0  0  0  0  0  0  0
    1.5000    0.0000    0.0000 C   0  0  0  0  0  0  0  0  0  0  0  0
    0.7500    1.2990    0.0000 C   0  0  0  0  0  0  0  0  0  0  0  0
   -0.7500    1.2990    0.0000 C   0  0  0  0  0  0  0  0  0  0  0  0
   -1.5000    0.0000    0.0000 C   0  0  0  0  0  0  0  0  0  0  0  0
   -0.7500   -1.2990    0.0000 C   0  0  0  0  0  0  0  0  0  0  0  0
   -1.5000   -2.5981    0.0000 N   0  0  0  0  0  0  0  0  0  0  0  0
   -0.7500   -3.8971    0.0000 C   0  0  0  0  0  0  0  0  0  0  0  0
   -1.5000   -5.1962    0.0000 O   0  0  0  0  0  0  0  0  0  0  0  0
   -3.0000   -5.1962    0.0000 C   0  0  0  0  0  0  0  0  0  0  0  0
    2.9918   -5.3529    0.0000 N   0  0  0  0  0  0  0  0  0  0  0  0
  1  2  1  0
  2  3  1  0
  3  4  2  0
  3  5  1  0
  5  6  1  0
  6  7  1  0
  7  8  1  0
  8  9  1  0
  9 10  1  0
 10 11  1  0
 11 12  1  0
 12 13  2  0
 12 14  1  0
 14 15  1  0
 15 16  1  0
 16 17  1  0
 17 18  1  0
 18 19  1  0
 17 20  1  0
 20 21  1  0
 21 22  1  0
 21 23  1  0
 10 24  1  0
 24 25  2  0
 25 26  1  0
 26 27  2  0
 27 28  1  0
 28 29  2  0
 29 30  1  0
 30 31  2  0
 31 32  1  0
 32 33  2  0
 33 34  1  0
 34 35  2  0
 35 36  1  0
 36 37  2  0
 37 38  1  0
 38 39  1  0
 27 40  1  0
 19 14  1  0
 40 24  1  0
 23 17  1  0
 37 28  1  0
 35 30  1  0
M  END
>  <molecule_chembl_id>  (1241) 
CHEMBL4637745

>  <canonical_smiles>  (1241) 
CCC(=O)CCCCCC(NC(=O)C1CCC2(CC1)CN(C)C2)c1ncc(-c2cc3ccccc3nc2OC)[nH]1

>  <pchembl_value_mean>  (1241) 
8.44

>  <document_chembl_id>  (1241) 
CHEMBL4622849

$$$$

     RDKit          2D

 31 33  0  0  0  0  0  0  0  0999 V2000
    6.0000   -5.1962    0.0000 C   0  0  0  0  0  0  0  0  0  0  0  0
    5.2500   -3.8971    0.0000 O   0  0  0  0  0  0  0  0  0  0  0  0
    3.7500   -3.8971    0.0000 C   0  0  0  0  0  0  0  0  0  0  0  0
    3.0000   -5.1962    0.0000 C   0  0  0  0  0  0  0  0  0  0  0  0
    1.5000   -5.1962    0.0000 C   0  0  0  0  0  0  0  0  0  0  0  0
    0.7500   -3.8971    0.0000 C   0  0  0  0  0  0  0  0  0  0  0  0
   -0.7500   -3.8971    0.0000 F   0  0  0  0  0  0  0  0  0  0  0  0
    1.5000   -2.5981    0.0000 C   0  0  0  0  0  0  0  0  0  0  0  0
    0.7500   -1.2990    0.0000 C   0  0  0  0  0  0  0  0  0  0  0  0
    1.5000    0.0000    0.0000 C   0  0  0  0  0  0  0  0  0  0  0  0
    0.7500    1.2990    0.0000 C   0  0  0  0  0  0  0  0  0  0  0  0
   -0.7500    1.2990    0.0000 C   0  0  0  0  0  0  0  0  0  0  0  0
   -1.7537    2.4138    0.0000 C   0  0  0  0  0  0  0  0  0  0  0  0
   -1.4418    3.8810    0.0000 N   0  0  0  0  0  0  0  0  0  0  0  0
   -2.5565    4.8847    0.0000 C   0  0  0  0  0  0  0  0  0  0  0  0
   -3.9831    4.4211    0.0000 O   0  0  0  0  0  0  0  0  0  0  0  0
   -2.2447    6.3519    0.0000 C   0  0  0  0  0  0  0  0  0  0  0  0
   -3.3594    7.3556    0.0000 C   0  0  0  0  0  0  0  0  0  0  0  0
   -3.0475    8.8228    0.0000 C   0  0  0  0  0  0  0  0  0  0  0  0
   -4.1622    9.8265    0.0000 C   0  0  0  0  0  0  0  0  0  0  0  0
   -3.8504   11.2937    0.0000 C   0  0  0  0  0  0  0  0  0  0  0  0
   -4.9651   12.2974    0.0000 C   0  0  0  0  0  0  0  0  0  0  0  0
   -4.6532   13.7646    0.0000 C   0  0  0  0  0  0  0  0  0  0  0  0
   -3.2266   14.2282    0.0000 O   0  0  0  0  0  0  0  0  0  0  0  0
   -5.7679   14.7683    0.0000 N   0  0  0  0  0  0  0  0  0  0  0  0
   -5.4561   16.2356    0.0000 O   0  0  0  0  0  0  0  0  0  0  0  0
   -3.1240    1.8037    0.0000 N   0  0  0  0  0  0  0  0  0  0  0  0
   -2.9672    0.3119    0.0000 N   0  0  0  0  0  0  0  0  0  0  0  0
   -1.5000    0.0000    0.0000 C   0  0  0  0  0  0  0  0  0  0  0  0
   -0.7500   -1.2990    0.0000 C   0  0  0  0  0  0  0  0  0  0  0  0
    3.0000   -2.5981    0.0000 C   0  0  0  0  0  0  0  0  0  0  0  0
  1  2  1  0
  2  3  1  0
  3  4  2  0
  4  5  1  0
  5  6  2  0
  6  7  1  0
  6  8  1  0
  8  9  1  0
  9 10  2  0
 10 11  1  0
 11 12  2  0
 12 13  1  0
 13 14  1  0
 14 15  1  0
 15 16  2  0
 15 17  1  0
 17 18  1  0
 18 19  1  0
 19 20  1  0
 20 21  1  0
 21 22  1  0
 22 23  1  0
 23 24  2  0
 23 25  1  0
 25 26  1  0
 13 27  2  0
 27 28  1  0
 28 29  1  0
 29 30  2  0
  8 31  2  0
 31  3  1  0
 30  9  1  0
 29 12  1  0
M  END
>  <molecule_chembl_id>  (1242) 
CHEMBL4799886

>  <canonical_smiles>  (1242) 
COc1ccc(F)c(-c2ccc3c(NC(=O)CCCCCCC(=O)NO)n[nH]c3c2)c1

>  <pchembl_value_mean>  (1242) 
8.46

>  <document_chembl_id>  (1242) 
CHEMBL4765277

$$$$

     RDKit          2D

 34 37  0  0  0  0  0  0  0  0999 V2000
   -5.2500   -9.0933    0.0000 C   0  0  0  0  0  0  0  0  0  0  0  0
   -3.7500   -9.0933    0.0000 O   0  0  0  0  0  0  0  0  0  0  0  0
   -3.0000   -7.7942    0.0000 C   0  0  0  0  0  0  0  0  0  0  0  0
   -3.7500   -6.4952    0.0000 C   0  0  0  0  0  0  0  0  0  0  0  0
   -3.0000   -5.1962    0.0000 C   0  0  0  0  0  0  0  0  0  0  0  0
   -1.5000   -5.1962    0.0000 C   0  0  0  0  0  0  0  0  0  0  0  0
   -0.7500   -3.8971    0.0000 C   0  0  0  0  0  0  0  0  0  0  0  0
    0.7500   -3.8971    0.0000 C   0  0  0  0  0  0  0  0  0  0  0  0
    1.5000   -2.5981    0.0000 C   0  0  0  0  0  0  0  0  0  0  0  0
    3.0000   -2.5981    0.0000 O   0  0  0  0  0  0  0  0  0  0  0  0
    3.7500   -3.8971    0.0000 C   0  0  0  0  0  0  0  0  0  0  0  0
    5.2500   -3.8971    0.0000 C   0  0  0  0  0  0  0  0  0  0  0  0
    6.0000   -5.1962    0.0000 N   0  0  0  0  0  0  0  0  0  0  0  0
    7.5000   -5.1962    0.0000 C   0  0  0  0  0  0  0  0  0  0  0  0
    5.2500   -6.4952    0.0000 C   0  0  0  0  0  0  0  0  0  0  0  0
    3.7500   -6.4952    0.0000 N   0  0  0  0  0  0  0  0  0  0  0  0
    3.0000   -7.7942    0.0000 C   0  0  0  0  0  0  0  0  0  0  0  0
    3.7500   -9.0933    0.0000 C   0  0  0  0  0  0  0  0  0  0  0  0
    3.0000  -10.3923    0.0000 C   0  0  0  0  0  0  0  0  0  0  0  0
    3.7500  -11.6913    0.0000 O   0  0  0  0  0  0  0  0  0  0  0  0
    1.5000  -10.3923    0.0000 N   0  0  0  0  0  0  0  0  0  0  0  0
    0.7500  -11.6913    0.0000 O   0  0  0  0  0  0  0  0  0  0  0  0
    5.2500   -9.0933    0.0000 C   0  0  0  0  0  0  0  0  0  0  0  0
    6.0000   -7.7942    0.0000 N   0  0  0  0  0  0  0  0  0  0  0  0
    0.7500   -1.2990    0.0000 C   0  0  0  0  0  0  0  0  0  0  0  0
    1.5000    0.0000    0.0000 N   0  0  0  0  0  0  0  0  0  0  0  0
    0.7500    1.2990    0.0000 C   0  0  0  0  0  0  0  0  0  0  0  0
   -0.7500    1.2990    0.0000 N   0  0  0  0  0  0  0  0  0  0  0  0
   -1.5000    0.0000    0.0000 C   0  0  0  0  0  0  0  0  0  0  0  0
   -3.0000    0.0000    0.0000 C   0  0  0  0  0  0  0  0  0  0  0  0
   -0.7500   -1.2990    0.0000 C   0  0  0  0  0  0  0  0  0  0  0  0
   -1.5000   -2.5981    0.0000 C   0  0  0  0  0  0  0  0  0  0  0  0
   -0.7500   -6.4952    0.0000 C   0  0  0  0  0  0  0  0  0  0  0  0
   -1.5000   -7.7942    0.0000 N   0  0  0  0  0  0  0  0  0  0  0  0
  1  2  1  0
  2  3  1  0
  3  4  2  0
  4  5  1  0
  5  6  2  0
  6  7  1  0
  7  8  2  0
  8  9  1  0
  9 10  1  0
 10 11  1  0
 11 12  1  0
 12 13  1  0
 13 14  1  0
 13 15  1  0
 15 16  2  0
 16 17  1  0
 17 18  2  0
 18 19  1  0
 19 20  2  0
 19 21  1  0
 21 22  1  0
 18 23  1  0
 23 24  2  0
  9 25  2  0
 25 26  1  0
 26 27  2  0
 27 28  1  0
 28 29  2  0
 29 30  1  0
 29 31  1  0
 31 32  2  0
  6 33  1  0
 33 34  2  0
 34  3  1  0
 32  7  1  0
 24 15  1  0
 31 25  1  0
M  END
>  <molecule_chembl_id>  (1243) 
CHEMBL4462577

>  <canonical_smiles>  (1243) 
COc1ccc(-c2cc(OCCN(C)c3ncc(C(=O)NO)cn3)c3ncnc(C)c3c2)cn1

>  <pchembl_value_mean>  (1243) 
8.47

>  <document_chembl_id>  (1243) 
CHEMBL4311940

$$$$

     RDKit          2D

 32 34  0  0  0  0  0  0  0  0999 V2000
    1.5922    6.6948    0.0000 C   0  0  0  0  0  0  0  0  0  0  0  0
    0.1004    6.8516    0.0000 C   0  0  0  0  0  0  0  0  0  0  0  0
   -0.5097    8.2219    0.0000 C   0  0  0  0  0  0  0  0  0  0  0  0
   -0.7813    5.6380    0.0000 C   0  0  0  0  0  0  0  0  0  0  0  0
    0.2369    4.5365    0.0000 N   0  0  0  0  0  0  0  0  0  0  0  0
    0.7561    3.1293    0.0000 C   0  0  0  0  0  0  0  0  0  0  0  0
    2.2376    3.3639    0.0000 O   0  0  0  0  0  0  0  0  0  0  0  0
    0.3943    1.2135    0.0000 C   0  0  0  0  0  0  0  0  0  0  0  0
    0.4790    2.4256    0.0000 C   0  0  0  0  0  0  0  0  0  0  0  0
    1.2760    0.0000    0.0000 C   0  0  0  0  0  0  0  0  0  0  0  0
    0.3943   -1.2135    0.0000 S   0  0  0  0  0  0  0  0  0  0  0  0
   -1.0323   -0.7500    0.0000 C   0  0  0  0  0  0  0  0  0  0  0  0
   -1.0323    0.7500    0.0000 N   0  0  0  0  0  0  0  0  0  0  0  0
   -2.4396   -1.2692    0.0000 C   0  0  0  0  0  0  0  0  0  0  0  0
   -3.2233   -2.5481    0.0000 C   0  0  0  0  0  0  0  0  0  0  0  0
   -4.6819   -2.1980    0.0000 S   0  0  0  0  0  0  0  0  0  0  0  0
   -5.3006   -0.5823    0.0000 C   0  0  0  0  0  0  0  0  0  0  0  0
   -3.9384   -1.2103    0.0000 N   0  0  0  0  0  0  0  0  0  0  0  0
   -6.3188    0.5192    0.0000 C   0  0  0  0  0  0  0  0  0  0  0  0
   -6.8380    1.9265    0.0000 N   0  0  0  0  0  0  0  0  0  0  0  0
   -6.7791    3.4253    0.0000 C   0  0  0  0  0  0  0  0  0  0  0  0
   -8.2377    3.7755    0.0000 O   0  0  0  0  0  0  0  0  0  0  0  0
   -6.1511    4.7875    0.0000 C   0  0  0  0  0  0  0  0  0  0  0  0
   -5.0496    5.8057    0.0000 C   0  0  0  0  0  0  0  0  0  0  0  0
   -5.8334    7.0847    0.0000 C   0  0  0  0  0  0  0  0  0  0  0  0
   -5.1177    8.4029    0.0000 C   0  0  0  0  0  0  0  0  0  0  0  0
   -5.9014    9.6819    0.0000 C   0  0  0  0  0  0  0  0  0  0  0  0
   -5.1857   11.0001    0.0000 C   0  0  0  0  0  0  0  0  0  0  0  0
   -5.9694   12.2791    0.0000 S   0  0  0  0  0  0  0  0  0  0  0  0
   -3.6424    6.3249    0.0000 N   0  0  0  0  0  0  0  0  0  0  0  0
   -2.1435    6.2660    0.0000 C   0  0  0  0  0  0  0  0  0  0  0  0
   -1.7933    7.7246    0.0000 O   0  0  0  0  0  0  0  0  0  0  0  0
  1  2  1  0
  2  3  1  0
  2  4  1  0
  4  5  1  0
  5  6  1  0
  6  7  2  0
  6  8  1  0
  8  9  1  0
  8 10  1  0
 10 11  1  0
 11 12  1  0
 12 13  2  0
 12 14  1  0
 14 15  2  0
 15 16  1  0
 16 17  1  0
 17 18  2  0
 17 19  1  0
 19 20  1  0
 20 21  1  0
 21 22  2  0
 21 23  1  0
 23 24  1  0
 24 25  1  0
 25 26  2  3
 26 27  1  0
 27 28  1  0
 28 29  1  0
 24 30  1  0
 30 31  1  0
 31 32  2  0
 31  4  1  0
 13  8  1  0
 18 14  1  0
M  END
>  <molecule_chembl_id>  (1244) 
CHEMBL3593407

>  <canonical_smiles>  (1244) 
CC(C)C1NC(=O)C2(C)CSC(=N2)c2csc(n2)CNC(=O)CC(C=CCCS)NC1=O

>  <pchembl_value_mean>  (1244) 
8.47

>  <document_chembl_id>  (1244) 
CHEMBL3593208

$$$$

     RDKit          2D

 31 33  0  0  0  0  0  0  0  0999 V2000
    0.7500   -6.4952    0.0000 C   0  0  0  0  0  0  0  0  0  0  0  0
    1.5000   -5.1962    0.0000 O   0  0  0  0  0  0  0  0  0  0  0  0
    0.7500   -3.8971    0.0000 C   0  0  0  0  0  0  0  0  0  0  0  0
    1.5000   -2.5981    0.0000 C   0  0  0  0  0  0  0  0  0  0  0  0
    0.7500   -1.2990    0.0000 C   0  0  0  0  0  0  0  0  0  0  0  0
    1.5000    0.0000    0.0000 N   0  0  0  0  0  0  0  0  0  0  0  0
    0.7500    1.2990    0.0000 C   0  0  0  0  0  0  0  0  0  0  0  0
   -0.7500    1.2990    0.0000 N   0  0  0  0  0  0  0  0  0  0  0  0
   -1.5000    0.0000    0.0000 C   0  0  0  0  0  0  0  0  0  0  0  0
   -3.0000    0.0000    0.0000 N   0  0  0  0  0  0  0  0  0  0  0  0
   -3.7500    1.2990    0.0000 C   0  0  0  0  0  0  0  0  0  0  0  0
   -3.0000    2.5981    0.0000 C   0  0  0  0  0  0  0  0  0  0  0  0
   -3.7500    3.8971    0.0000 C   0  0  0  0  0  0  0  0  0  0  0  0
   -5.2500    3.8971    0.0000 C   0  0  0  0  0  0  0  0  0  0  0  0
   -6.0000    5.1962    0.0000 Br  0  0  0  0  0  0  0  0  0  0  0  0
   -6.0000    2.5981    0.0000 C   0  0  0  0  0  0  0  0  0  0  0  0
   -5.2500    1.2990    0.0000 C   0  0  0  0  0  0  0  0  0  0  0  0
   -0.7500   -1.2990    0.0000 C   0  0  0  0  0  0  0  0  0  0  0  0
   -1.5000   -2.5981    0.0000 C   0  0  0  0  0  0  0  0  0  0  0  0
   -0.7500   -3.8971    0.0000 C   0  0  0  0  0  0  0  0  0  0  0  0
   -1.5000   -5.1962    0.0000 O   0  0  0  0  0  0  0  0  0  0  0  0
   -3.0000   -5.1962    0.0000 C   0  0  0  0  0  0  0  0  0  0  0  0
   -3.7500   -6.4952    0.0000 C   0  0  0  0  0  0  0  0  0  0  0  0
   -5.2500   -6.4952    0.0000 C   0  0  0  0  0  0  0  0  0  0  0  0
   -6.0000   -7.7942    0.0000 C   0  0  0  0  0  0  0  0  0  0  0  0
   -7.5000   -7.7942    0.0000 C   0  0  0  0  0  0  0  0  0  0  0  0
   -8.2500   -9.0933    0.0000 C   0  0  0  0  0  0  0  0  0  0  0  0
   -9.7500   -9.0933    0.0000 C   0  0  0  0  0  0  0  0  0  0  0  0
  -10.5000   -7.7942    0.0000 O   0  0  0  0  0  0  0  0  0  0  0  0
  -10.5000  -10.3923    0.0000 N   0  0  0  0  0  0  0  0  0  0  0  0
  -12.0000  -10.3923    0.0000 O   0  0  0  0  0  0  0  0  0  0  0  0
  1  2  1  0
  2  3  1  0
  3  4  2  0
  4  5  1  0
  5  6  2  0
  6  7  1  0
  7  8  2  0
  8  9  1  0
  9 10  1  0
 10 11  1  0
 11 12  2  0
 12 13  1  0
 13 14  2  0
 14 15  1  0
 14 16  1  0
 16 17  2  0
  9 18  2  0
 18 19  1  0
 19 20  2  0
 20 21  1  0
 21 22  1  0
 22 23  1  0
 23 24  1  0
 24 25  1  0
 25 26  1  0
 26 27  1  0
 27 28  1  0
 28 29  2  0
 28 30  1  0
 30 31  1  0
 20  3  1  0
 18  5  1  0
 17 11  1  0
M  END
>  <molecule_chembl_id>  (1245) 
CHEMBL3759186

>  <canonical_smiles>  (1245) 
COc1cc2ncnc(Nc3ccc(Br)cc3)c2cc1OCCCCCCC(=O)NO

>  <pchembl_value_mean>  (1245) 
8.48

>  <document_chembl_id>  (1245) 
CHEMBL3758114

$$$$

     RDKit          2D

 30 33  0  0  0  0  0  0  0  0999 V2000
   -0.0000   -5.1073    0.0000 N   0  0  0  0  0  0  0  0  0  0  0  0
   -0.0000   -3.6073    0.0000 C   0  0  0  0  0  0  0  0  0  0  0  0
    1.2135   -2.7256    0.0000 N   0  0  0  0  0  0  0  0  0  0  0  0
    0.7500   -1.2990    0.0000 C   0  0  0  0  0  0  0  0  0  0  0  0
    1.5000    0.0000    0.0000 C   0  0  0  0  0  0  0  0  0  0  0  0
    0.7500    1.2990    0.0000 C   0  0  0  0  0  0  0  0  0  0  0  0
    1.5000    2.5981    0.0000 C   0  0  0  0  0  0  0  0  0  0  0  0
    2.9918    2.7549    0.0000 N   0  0  0  0  0  0  0  0  0  0  0  0
    3.3037    4.2221    0.0000 N   0  0  0  0  0  0  0  0  0  0  0  0
    4.6740    4.8322    0.0000 C   0  0  0  0  0  0  0  0  0  0  0  0
    5.8875    3.9505    0.0000 C   0  0  0  0  0  0  0  0  0  0  0  0
    7.2578    4.5606    0.0000 C   0  0  0  0  0  0  0  0  0  0  0  0
    8.4713    3.6789    0.0000 C   0  0  0  0  0  0  0  0  0  0  0  0
    9.8417    4.2890    0.0000 C   0  0  0  0  0  0  0  0  0  0  0  0
   11.0552    3.4074    0.0000 C   0  0  0  0  0  0  0  0  0  0  0  0
   12.4255    4.0175    0.0000 C   0  0  0  0  0  0  0  0  0  0  0  0
   12.5823    5.5093    0.0000 O   0  0  0  0  0  0  0  0  0  0  0  0
   13.6390    3.1358    0.0000 N   0  0  0  0  0  0  0  0  0  0  0  0
   15.0093    3.7459    0.0000 O   0  0  0  0  0  0  0  0  0  0  0  0
    2.0046    4.9721    0.0000 C   0  0  0  0  0  0  0  0  0  0  0  0
    1.6927    6.4393    0.0000 N   0  0  0  0  0  0  0  0  0  0  0  0
    0.2662    6.9028    0.0000 C   0  0  0  0  0  0  0  0  0  0  0  0
   -0.8486    5.8991    0.0000 N   0  0  0  0  0  0  0  0  0  0  0  0
   -0.5367    4.4319    0.0000 C   0  0  0  0  0  0  0  0  0  0  0  0
   -1.6514    3.4282    0.0000 N   0  0  0  0  0  0  0  0  0  0  0  0
    0.8899    3.9684    0.0000 C   0  0  0  0  0  0  0  0  0  0  0  0
   -0.7500    1.2990    0.0000 C   0  0  0  0  0  0  0  0  0  0  0  0
   -1.5000    0.0000    0.0000 C   0  0  0  0  0  0  0  0  0  0  0  0
   -0.7500   -1.2990    0.0000 C   0  0  0  0  0  0  0  0  0  0  0  0
   -1.2135   -2.7256    0.0000 O   0  0  0  0  0  0  0  0  0  0  0  0
  1  2  1  0
  2  3  2  0
  3  4  1  0
  4  5  2  0
  5  6  1  0
  6  7  1  0
  7  8  2  0
  8  9  1  0
  9 10  1  0
 10 11  1  0
 11 12  1  0
 12 13  1  0
 13 14  1  0
 14 15  1  0
 15 16  1  0
 16 17  2  0
 16 18  1  0
 18 19  1  0
  9 20  1  0
 20 21  2  0
 21 22  1  0
 22 23  2  0
 23 24  1  0
 24 25  1  0
 24 26  2  0
  6 27  2  0
 27 28  1  0
 28 29  2  0
 29 30  1  0
 30  2  1  0
 29  4  1  0
 26  7  1  0
 26 20  1  0
M  END
>  <molecule_chembl_id>  (1246) 
CHEMBL4846560

>  <canonical_smiles>  (1246) 
Nc1nc2cc(-c3nn(CCCCCCC(=O)NO)c4ncnc(N)c34)ccc2o1

>  <pchembl_value_mean>  (1246) 
8.49

>  <document_chembl_id>  (1246) 
CHEMBL4842376

$$$$

     RDKit          2D

 39 43  0  0  0  0  0  0  0  0999 V2000
   10.7824  -15.8378    0.0000 C   0  0  0  0  0  0  0  0  0  0  0  0
    9.4121  -15.2277    0.0000 C   0  0  0  0  0  0  0  0  0  0  0  0
    9.2553  -13.7359    0.0000 C   0  0  0  0  0  0  0  0  0  0  0  0
   10.4688  -12.8543    0.0000 O   0  0  0  0  0  0  0  0  0  0  0  0
    7.8850  -13.1258    0.0000 C   0  0  0  0  0  0  0  0  0  0  0  0
    7.7282  -11.6340    0.0000 C   0  0  0  0  0  0  0  0  0  0  0  0
    6.3579  -11.0239    0.0000 C   0  0  0  0  0  0  0  0  0  0  0  0
    6.2011   -9.5322    0.0000 C   0  0  0  0  0  0  0  0  0  0  0  0
    4.8308   -8.9221    0.0000 C   0  0  0  0  0  0  0  0  0  0  0  0
    4.6740   -7.4303    0.0000 C   0  0  0  0  0  0  0  0  0  0  0  0
    5.8875   -6.5486    0.0000 N   0  0  0  0  0  0  0  0  0  0  0  0
    7.2578   -7.1587    0.0000 C   0  0  0  0  0  0  0  0  0  0  0  0
    7.4146   -8.6505    0.0000 O   0  0  0  0  0  0  0  0  0  0  0  0
    8.4713   -6.2770    0.0000 C   0  0  0  0  0  0  0  0  0  0  0  0
    9.0814   -4.9067    0.0000 C   0  0  0  0  0  0  0  0  0  0  0  0
    9.9631   -6.1202    0.0000 C   0  0  0  0  0  0  0  0  0  0  0  0
   10.1199   -7.6120    0.0000 C   0  0  0  0  0  0  0  0  0  0  0  0
   11.4902   -8.2221    0.0000 C   0  0  0  0  0  0  0  0  0  0  0  0
   12.7038   -7.3404    0.0000 N   0  0  0  0  0  0  0  0  0  0  0  0
   14.0741   -7.9505    0.0000 C   0  0  0  0  0  0  0  0  0  0  0  0
   12.5470   -5.8487    0.0000 C   0  0  0  0  0  0  0  0  0  0  0  0
   11.1766   -5.2386    0.0000 C   0  0  0  0  0  0  0  0  0  0  0  0
    3.3037   -6.8202    0.0000 C   0  0  0  0  0  0  0  0  0  0  0  0
    2.0046   -7.5702    0.0000 N   0  0  0  0  0  0  0  0  0  0  0  0
    0.8899   -6.5665    0.0000 C   0  0  0  0  0  0  0  0  0  0  0  0
    1.5000   -5.1962    0.0000 C   0  0  0  0  0  0  0  0  0  0  0  0
    0.7500   -3.8971    0.0000 C   0  0  0  0  0  0  0  0  0  0  0  0
    1.5000   -2.5981    0.0000 C   0  0  0  0  0  0  0  0  0  0  0  0
    0.7500   -1.2990    0.0000 C   0  0  0  0  0  0  0  0  0  0  0  0
    1.5000    0.0000    0.0000 C   0  0  0  0  0  0  0  0  0  0  0  0
    0.7500    1.2990    0.0000 C   0  0  0  0  0  0  0  0  0  0  0  0
   -0.7500    1.2990    0.0000 C   0  0  0  0  0  0  0  0  0  0  0  0
   -1.5000    0.0000    0.0000 N   0  0  0  0  0  0  0  0  0  0  0  0
   -0.7500   -1.2990    0.0000 C   0  0  0  0  0  0  0  0  0  0  0  0
   -1.5000   -2.5981    0.0000 C   0  0  0  0  0  0  0  0  0  0  0  0
   -0.7500   -3.8971    0.0000 C   0  0  0  0  0  0  0  0  0  0  0  0
   -1.5000   -5.1962    0.0000 O   0  0  0  0  0  0  0  0  0  0  0  0
   -3.0000   -5.1962    0.0000 C   0  0  0  0  0  0  0  0  0  0  0  0
    2.9918   -5.3529    0.0000 O   0  0  0  0  0  0  0  0  0  0  0  0
  1  2  1  0
  2  3  1  0
  3  4  2  0
  3  5  1  0
  5  6  1  0
  6  7  1  0
  7  8  1  0
  8  9  1  0
  9 10  1  0
 10 11  1  0
 11 12  1  0
 12 13  2  0
 12 14  1  0
 14 15  1  0
 15 16  1  0
 16 17  1  0
 17 18  1  0
 18 19  1  0
 19 20  1  0
 19 21  1  0
 21 22  1  0
 10 23  1  0
 23 24  2  0
 24 25  1  0
 25 26  2  0
 26 27  1  0
 27 28  2  0
 28 29  1  0
 29 30  2  0
 30 31  1  0
 31 32  2  0
 32 33  1  0
 33 34  2  0
 34 35  1  0
 35 36  2  0
 36 37  1  0
 37 38  1  0
 26 39  1  0
 16 14  1  0
 39 23  1  0
 22 16  1  0
 36 27  1  0
 34 29  1  0
M  END
>  <molecule_chembl_id>  (1247) 
CHEMBL4862556

>  <canonical_smiles>  (1247) 
CCC(=O)CCCCCC(NC(=O)C1CC12CCN(C)CC2)c1ncc(-c2cc3cccnc3cc2OC)o1

>  <pchembl_value_mean>  (1247) 
8.49

>  <document_chembl_id>  (1247) 
CHEMBL4825740

$$$$

     RDKit          2D

 23 23  0  0  0  0  0  0  0  0999 V2000
    6.0000   -2.5981    0.0000 C   0  0  0  0  0  0  0  0  0  0  0  0
    5.2500   -1.2990    0.0000 C   0  0  0  0  0  0  0  0  0  0  0  0
    3.7500   -1.2990    0.0000 C   0  0  0  0  0  0  0  0  0  0  0  0
    3.0000    0.0000    0.0000 C   0  0  0  0  0  0  0  0  0  0  0  0
    1.5000    0.0000    0.0000 C   0  0  0  0  0  0  0  0  0  0  0  0
    0.7500   -1.2990    0.0000 C   0  0  0  0  0  0  0  0  0  0  0  0
   -0.7500   -1.2990    0.0000 C   0  0  0  0  0  0  0  0  0  0  0  0
   -1.5000    0.0000    0.0000 C   0  0  0  0  0  0  0  0  0  0  0  0
   -0.7500    1.2990    0.0000 C   0  0  0  0  0  0  0  0  0  0  0  0
    0.7500    1.2990    0.0000 C   0  0  0  0  0  0  0  0  0  0  0  0
    6.0000    0.0000    0.0000 C   0  0  0  0  0  0  0  0  0  0  0  0
    7.5000   -0.0000    0.0000 C   0  0  0  0  0  0  0  0  0  0  0  0
    8.2500   -1.2990    0.0000 O   0  0  0  0  0  0  0  0  0  0  0  0
    8.2500    1.2990    0.0000 N   0  0  0  0  0  0  0  0  0  0  0  0
    9.7500    1.2990    0.0000 C   0  0  0  0  0  0  0  0  0  0  0  0
   10.5000    2.5981    0.0000 C   0  0  0  0  0  0  0  0  0  0  0  0
   12.0000    2.5981    0.0000 C   0  0  0  0  0  0  0  0  0  0  0  0
   12.7500    3.8971    0.0000 C   0  0  0  0  0  0  0  0  0  0  0  0
   14.2500    3.8971    0.0000 C   0  0  0  0  0  0  0  0  0  0  0  0
   15.0000    5.1962    0.0000 C   0  0  0  0  0  0  0  0  0  0  0  0
   14.2500    6.4952    0.0000 O   0  0  0  0  0  0  0  0  0  0  0  0
   16.5000    5.1962    0.0000 N   0  0  0  0  0  0  0  0  0  0  0  0
   17.2500    6.4952    0.0000 O   0  0  0  0  0  0  0  0  0  0  0  0
  1  2  1  0
  2  3  1  0
  3  4  2  3
  4  5  1  0
  5  6  2  0
  6  7  1  0
  7  8  2  0
  8  9  1  0
  9 10  2  0
  2 11  2  3
 11 12  1  0
 12 13  2  0
 12 14  1  0
 14 15  1  0
 15 16  1  0
 16 17  1  0
 17 18  1  0
 18 19  1  0
 19 20  1  0
 20 21  2  0
 20 22  1  0
 22 23  1  0
 10  5  1  0
M  END
>  <molecule_chembl_id>  (1248) 
CHEMBL490018

>  <canonical_smiles>  (1248) 
CC(C=Cc1ccccc1)=CC(=O)NCCCCCC(=O)NO

>  <pchembl_value_mean>  (1248) 
8.51

>  <document_chembl_id>  (1248) 
CHEMBL1137690

$$$$

     RDKit          2D

 39 41  0  0  0  0  0  0  0  0999 V2000
    6.4959   10.3000    0.0000 C   0  0  0  0  0  0  0  0  0  0  0  0
    6.3391    8.8082    0.0000 C   0  0  0  0  0  0  0  0  0  0  0  0
    6.1823    7.3164    0.0000 C   0  0  0  0  0  0  0  0  0  0  0  0
    7.8309    8.6514    0.0000 C   0  0  0  0  0  0  0  0  0  0  0  0
    4.8473    8.9650    0.0000 O   0  0  0  0  0  0  0  0  0  0  0  0
    3.9656    7.7515    0.0000 C   0  0  0  0  0  0  0  0  0  0  0  0
    4.5757    6.3812    0.0000 O   0  0  0  0  0  0  0  0  0  0  0  0
    2.4738    7.9083    0.0000 N   0  0  0  0  0  0  0  0  0  0  0  0
    1.5922    6.6948    0.0000 C   0  0  0  0  0  0  0  0  0  0  0  0
    0.1004    6.8516    0.0000 C   0  0  0  0  0  0  0  0  0  0  0  0
   -0.7813    5.6380    0.0000 C   0  0  0  0  0  0  0  0  0  0  0  0
    0.2369    4.5365    0.0000 N   0  0  0  0  0  0  0  0  0  0  0  0
    0.7561    3.1293    0.0000 C   0  0  0  0  0  0  0  0  0  0  0  0
    2.2376    3.3639    0.0000 O   0  0  0  0  0  0  0  0  0  0  0  0
    0.3943    1.2135    0.0000 C   0  0  0  0  0  0  0  0  0  0  0  0
    0.4790    2.4256    0.0000 C   0  0  0  0  0  0  0  0  0  0  0  0
    1.2760    0.0000    0.0000 C   0  0  0  0  0  0  0  0  0  0  0  0
    0.3943   -1.2135    0.0000 S   0  0  0  0  0  0  0  0  0  0  0  0
   -1.0323   -0.7500    0.0000 C   0  0  0  0  0  0  0  0  0  0  0  0
   -1.0323    0.7500    0.0000 N   0  0  0  0  0  0  0  0  0  0  0  0
   -2.4396   -1.2692    0.0000 C   0  0  0  0  0  0  0  0  0  0  0  0
   -3.2233   -2.5481    0.0000 C   0  0  0  0  0  0  0  0  0  0  0  0
   -4.6819   -2.1980    0.0000 S   0  0  0  0  0  0  0  0  0  0  0  0
   -5.3006   -0.5823    0.0000 C   0  0  0  0  0  0  0  0  0  0  0  0
   -3.9384   -1.2103    0.0000 N   0  0  0  0  0  0  0  0  0  0  0  0
   -6.3188    0.5192    0.0000 C   0  0  0  0  0  0  0  0  0  0  0  0
   -6.8380    1.9265    0.0000 N   0  0  0  0  0  0  0  0  0  0  0  0
   -6.7791    3.4253    0.0000 C   0  0  0  0  0  0  0  0  0  0  0  0
   -8.2377    3.7755    0.0000 O   0  0  0  0  0  0  0  0  0  0  0  0
   -6.1511    4.7875    0.0000 C   0  0  0  0  0  0  0  0  0  0  0  0
   -5.0496    5.8057    0.0000 C   0  0  0  0  0  0  0  0  0  0  0  0
   -5.8334    7.0847    0.0000 C   0  0  0  0  0  0  0  0  0  0  0  0
   -5.1177    8.4029    0.0000 C   0  0  0  0  0  0  0  0  0  0  0  0
   -5.9014    9.6819    0.0000 C   0  0  0  0  0  0  0  0  0  0  0  0
   -5.1857   11.0001    0.0000 C   0  0  0  0  0  0  0  0  0  0  0  0
   -5.9694   12.2791    0.0000 S   0  0  0  0  0  0  0  0  0  0  0  0
   -3.6424    6.3249    0.0000 O   0  0  0  0  0  0  0  0  0  0  0  0
   -2.1435    6.2660    0.0000 C   0  0  0  0  0  0  0  0  0  0  0  0
   -1.7933    7.7246    0.0000 O   0  0  0  0  0  0  0  0  0  0  0  0
  1  2  1  0
  2  3  1  0
  2  4  1  0
  2  5  1  0
  5  6  1  0
  6  7  2  0
  6  8  1  0
  8  9  1  0
  9 10  1  0
 10 11  1  0
 11 12  1  0
 12 13  1  0
 13 14  2  0
 13 15  1  0
 15 16  1  0
 15 17  1  0
 17 18  1  0
 18 19  1  0
 19 20  2  0
 19 21  1  0
 21 22  2  0
 22 23  1  0
 23 24  1  0
 24 25  2  0
 24 26  1  0
 26 27  1  0
 27 28  1  0
 28 29  2  0
 28 30  1  0
 30 31  1  0
 31 32  1  0
 32 33  2  3
 33 34  1  0
 34 35  1  0
 35 36  1  0
 31 37  1  0
 37 38  1  0
 38 39  2  0
 38 11  1  0
 20 15  1  0
 25 21  1  0
M  END
>  <molecule_chembl_id>  (1249) 
CHEMBL3317816

>  <canonical_smiles>  (1249) 
CC(C)(C)OC(=O)NCCC1NC(=O)C2(C)CSC(=N2)c2csc(n2)CNC(=O)CC(C=CCCS)OC1=O

>  <pchembl_value_mean>  (1249) 
8.51

>  <document_chembl_id>  (1249) 
CHEMBL3352389

$$$$

     RDKit          2D

 22 22  0  0  0  0  0  0  0  0999 V2000
    6.0000    0.0000    0.0000 O   0  0  0  0  0  0  0  0  0  0  0  0
    5.2500   -1.2990    0.0000 C   0  0  0  0  0  0  0  0  0  0  0  0
    3.7500   -1.2990    0.0000 C   0  0  0  0  0  0  0  0  0  0  0  0
    3.0000    0.0000    0.0000 C   0  0  0  0  0  0  0  0  0  0  0  0
    1.5000    0.0000    0.0000 C   0  0  0  0  0  0  0  0  0  0  0  0
    0.7500   -1.2990    0.0000 C   0  0  0  0  0  0  0  0  0  0  0  0
   -0.7500   -1.2990    0.0000 C   0  0  0  0  0  0  0  0  0  0  0  0
   -1.5000    0.0000    0.0000 C   0  0  0  0  0  0  0  0  0  0  0  0
   -3.0000    0.0000    0.0000 Cl  0  0  0  0  0  0  0  0  0  0  0  0
   -0.7500    1.2990    0.0000 C   0  0  0  0  0  0  0  0  0  0  0  0
    0.7500    1.2990    0.0000 C   0  0  0  0  0  0  0  0  0  0  0  0
    1.5000    2.5981    0.0000 F   0  0  0  0  0  0  0  0  0  0  0  0
    6.0000   -2.5981    0.0000 N   0  0  0  0  0  0  0  0  0  0  0  0
    7.5000   -2.5981    0.0000 C   0  0  0  0  0  0  0  0  0  0  0  0
    8.2500   -3.8971    0.0000 C   0  0  0  0  0  0  0  0  0  0  0  0
    9.7500   -3.8971    0.0000 C   0  0  0  0  0  0  0  0  0  0  0  0
   10.5000   -5.1962    0.0000 C   0  0  0  0  0  0  0  0  0  0  0  0
   12.0000   -5.1962    0.0000 C   0  0  0  0  0  0  0  0  0  0  0  0
   12.7500   -6.4952    0.0000 C   0  0  0  0  0  0  0  0  0  0  0  0
   12.0000   -7.7942    0.0000 O   0  0  0  0  0  0  0  0  0  0  0  0
   14.2500   -6.4952    0.0000 N   0  0  0  0  0  0  0  0  0  0  0  0
   15.0000   -7.7942    0.0000 O   0  0  0  0  0  0  0  0  0  0  0  0
  1  2  2  0
  2  3  1  0
  3  4  2  3
  4  5  1  0
  5  6  2  0
  6  7  1  0
  7  8  2  0
  8  9  1  0
  8 10  1  0
 10 11  2  0
 11 12  1  0
  2 13  1  0
 13 14  1  0
 14 15  1  0
 15 16  1  0
 16 17  1  0
 17 18  1  0
 18 19  1  0
 19 20  2  0
 19 21  1  0
 21 22  1  0
 11  5  1  0
M  END
>  <molecule_chembl_id>  (1250) 
CHEMBL484489

>  <canonical_smiles>  (1250) 
O=C(C=Cc1ccc(Cl)cc1F)NCCCCCC(=O)NO

>  <pchembl_value_mean>  (1250) 
8.52

>  <document_chembl_id>  (1250) 
CHEMBL1137690

$$$$

     RDKit          2D

 31 33  0  0  0  0  0  0  0  0999 V2000
   -5.2500   -9.0933    0.0000 C   0  0  0  0  0  0  0  0  0  0  0  0
   -3.7500   -9.0933    0.0000 O   0  0  0  0  0  0  0  0  0  0  0  0
   -3.0000   -7.7942    0.0000 C   0  0  0  0  0  0  0  0  0  0  0  0
   -3.7500   -6.4952    0.0000 N   0  0  0  0  0  0  0  0  0  0  0  0
   -3.0000   -5.1962    0.0000 C   0  0  0  0  0  0  0  0  0  0  0  0
   -1.5000   -5.1962    0.0000 C   0  0  0  0  0  0  0  0  0  0  0  0
   -0.7500   -3.8971    0.0000 C   0  0  0  0  0  0  0  0  0  0  0  0
    0.7500   -3.8971    0.0000 C   0  0  0  0  0  0  0  0  0  0  0  0
    1.5000   -2.5981    0.0000 C   0  0  0  0  0  0  0  0  0  0  0  0
    3.0000   -2.5981    0.0000 O   0  0  0  0  0  0  0  0  0  0  0  0
    3.7500   -3.8971    0.0000 C   0  0  0  0  0  0  0  0  0  0  0  0
    5.2500   -3.8971    0.0000 C   0  0  0  0  0  0  0  0  0  0  0  0
    6.0000   -5.1962    0.0000 C   0  0  0  0  0  0  0  0  0  0  0  0
    7.5000   -5.1962    0.0000 C   0  0  0  0  0  0  0  0  0  0  0  0
    8.2500   -6.4952    0.0000 C   0  0  0  0  0  0  0  0  0  0  0  0
    9.7500   -6.4952    0.0000 C   0  0  0  0  0  0  0  0  0  0  0  0
   10.5000   -7.7942    0.0000 C   0  0  0  0  0  0  0  0  0  0  0  0
    9.7500   -9.0933    0.0000 O   0  0  0  0  0  0  0  0  0  0  0  0
   12.0000   -7.7942    0.0000 N   0  0  0  0  0  0  0  0  0  0  0  0
   12.7500   -9.0933    0.0000 O   0  0  0  0  0  0  0  0  0  0  0  0
    0.7500   -1.2990    0.0000 C   0  0  0  0  0  0  0  0  0  0  0  0
    1.5000    0.0000    0.0000 N   0  0  0  0  0  0  0  0  0  0  0  0
    0.7500    1.2990    0.0000 C   0  0  0  0  0  0  0  0  0  0  0  0
   -0.7500    1.2990    0.0000 N   0  0  0  0  0  0  0  0  0  0  0  0
   -1.5000    0.0000    0.0000 C   0  0  0  0  0  0  0  0  0  0  0  0
   -3.0000    0.0000    0.0000 C   0  0  0  0  0  0  0  0  0  0  0  0
   -0.7500   -1.2990    0.0000 C   0  0  0  0  0  0  0  0  0  0  0  0
   -1.5000   -2.5981    0.0000 C   0  0  0  0  0  0  0  0  0  0  0  0
   -0.7500   -6.4952    0.0000 C   0  0  0  0  0  0  0  0  0  0  0  0
   -1.5000   -7.7942    0.0000 C   0  0  0  0  0  0  0  0  0  0  0  0
   -0.7500   -9.0933    0.0000 F   0  0  0  0  0  0  0  0  0  0  0  0
  1  2  1  0
  2  3  1  0
  3  4  2  0
  4  5  1  0
  5  6  2  0
  6  7  1  0
  7  8  2  0
  8  9  1  0
  9 10  1  0
 10 11  1  0
 11 12  1  0
 12 13  1  0
 13 14  1  0
 14 15  1  0
 15 16  1  0
 16 17  1  0
 17 18  2  0
 17 19  1  0
 19 20  1  0
  9 21  2  0
 21 22  1  0
 22 23  2  0
 23 24  1  0
 24 25  2  0
 25 26  1  0
 25 27  1  0
 27 28  2  0
  6 29  1  0
 29 30  2  0
 30 31  1  0
 30  3  1  0
 28  7  1  0
 27 21  1  0
M  END
>  <molecule_chembl_id>  (1251) 
CHEMBL4536105

>  <canonical_smiles>  (1251) 
COc1ncc(-c2cc(OCCCCCCC(=O)NO)c3ncnc(C)c3c2)cc1F

>  <pchembl_value_mean>  (1251) 
8.52

>  <document_chembl_id>  (1251) 
CHEMBL4311940

$$$$

     RDKit          2D

 36 40  0  0  0  0  0  0  0  0999 V2000
   -5.7221   -0.3037    0.0000 C   0  0  0  0  0  0  0  0  0  0  0  0
   -5.7221   -1.8037    0.0000 N   0  0  0  0  0  0  0  0  0  0  0  0
   -4.4231   -2.5537    0.0000 C   0  0  0  0  0  0  0  0  0  0  0  0
   -3.1240   -1.8037    0.0000 C   0  0  0  0  0  0  0  0  0  0  0  0
   -1.7537   -2.4138    0.0000 N   0  0  0  0  0  0  0  0  0  0  0  0
   -0.7500   -1.2990    0.0000 C   0  0  0  0  0  0  0  0  0  0  0  0
    0.7500   -1.2990    0.0000 C   0  0  0  0  0  0  0  0  0  0  0  0
    1.5000   -2.5981    0.0000 N   0  0  0  0  0  0  0  0  0  0  0  0
    0.7500   -3.8971    0.0000 C   0  0  0  0  0  0  0  0  0  0  0  0
    1.5000   -5.1962    0.0000 C   0  0  0  0  0  0  0  0  0  0  0  0
    3.0000   -5.1962    0.0000 O   0  0  0  0  0  0  0  0  0  0  0  0
    3.7500   -3.8971    0.0000 C   0  0  0  0  0  0  0  0  0  0  0  0
    3.0000   -2.5981    0.0000 C   0  0  0  0  0  0  0  0  0  0  0  0
    1.5000    0.0000    0.0000 N   0  0  0  0  0  0  0  0  0  0  0  0
    0.7500    1.2990    0.0000 C   0  0  0  0  0  0  0  0  0  0  0  0
    1.5000    2.5981    0.0000 C   0  0  0  0  0  0  0  0  0  0  0  0
    3.0000    2.5981    0.0000 C   0  0  0  0  0  0  0  0  0  0  0  0
    3.7500    3.8971    0.0000 C   0  0  0  0  0  0  0  0  0  0  0  0
    3.0000    5.1962    0.0000 C   0  0  0  0  0  0  0  0  0  0  0  0
    3.7500    6.4952    0.0000 N   0  0  0  0  0  0  0  0  0  0  0  0
    1.5000    5.1962    0.0000 C   0  0  0  0  0  0  0  0  0  0  0  0
    0.7500    3.8971    0.0000 C   0  0  0  0  0  0  0  0  0  0  0  0
   -0.7500    1.2990    0.0000 N   0  0  0  0  0  0  0  0  0  0  0  0
   -1.5000    0.0000    0.0000 C   0  0  0  0  0  0  0  0  0  0  0  0
   -2.9672   -0.3119    0.0000 N   0  0  0  0  0  0  0  0  0  0  0  0
   -4.0819    0.6918    0.0000 C   0  0  0  0  0  0  0  0  0  0  0  0
   -7.0211   -2.5537    0.0000 C   0  0  0  0  0  0  0  0  0  0  0  0
   -8.3202   -1.8037    0.0000 N   0  0  0  0  0  0  0  0  0  0  0  0
   -9.6192   -2.5537    0.0000 C   0  0  0  0  0  0  0  0  0  0  0  0
   -9.6192   -4.0537    0.0000 C   0  0  0  0  0  0  0  0  0  0  0  0
  -10.9182   -4.8037    0.0000 C   0  0  0  0  0  0  0  0  0  0  0  0
  -10.9182   -6.3037    0.0000 O   0  0  0  0  0  0  0  0  0  0  0  0
  -12.2173   -4.0537    0.0000 N   0  0  0  0  0  0  0  0  0  0  0  0
  -13.5163   -4.8037    0.0000 O   0  0  0  0  0  0  0  0  0  0  0  0
   -8.3202   -4.8037    0.0000 C   0  0  0  0  0  0  0  0  0  0  0  0
   -7.0211   -4.0537    0.0000 N   0  0  0  0  0  0  0  0  0  0  0  0
  1  2  1  0
  2  3  1  0
  3  4  1  0
  4  5  2  0
  5  6  1  0
  6  7  2  0
  7  8  1  0
  8  9  1  0
  9 10  1  0
 10 11  1  0
 11 12  1  0
 12 13  1  0
  7 14  1  0
 14 15  2  0
 15 16  1  0
 16 17  2  0
 17 18  1  0
 18 19  2  0
 19 20  1  0
 19 21  1  0
 21 22  2  0
 15 23  1  0
 23 24  2  0
 24 25  1  0
 25 26  1  0
  2 27  1  0
 27 28  2  0
 28 29  1  0
 29 30  2  0
 30 31  1  0
 31 32  2  0
 31 33  1  0
 33 34  1  0
 30 35  1  0
 35 36  2  0
 25  4  1  0
 36 27  1  0
 24  6  1  0
 13  8  1  0
 22 16  1  0
M  END
>  <molecule_chembl_id>  (1252) 
CHEMBL3827814

>  <canonical_smiles>  (1252) 
CN(Cc1nc2c(N3CCOCC3)nc(-c3ccc(N)cc3)nc2n1C)c1ncc(C(=O)NO)cn1

>  <pchembl_value_mean>  (1252) 
8.54

>  <document_chembl_id>  (1252) 
CHEMBL3826921

$$$$

     RDKit          2D

 35 39  0  0  0  0  0  0  0  0999 V2000
   -5.7221   -0.3037    0.0000 C   0  0  0  0  0  0  0  0  0  0  0  0
   -5.7221   -1.8037    0.0000 N   0  0  0  0  0  0  0  0  0  0  0  0
   -4.4231   -2.5537    0.0000 C   0  0  0  0  0  0  0  0  0  0  0  0
   -3.1240   -1.8037    0.0000 C   0  0  0  0  0  0  0  0  0  0  0  0
   -1.7537   -2.4138    0.0000 N   0  0  0  0  0  0  0  0  0  0  0  0
   -0.7500   -1.2990    0.0000 C   0  0  0  0  0  0  0  0  0  0  0  0
    0.7500   -1.2990    0.0000 C   0  0  0  0  0  0  0  0  0  0  0  0
    1.5000   -2.5981    0.0000 N   0  0  0  0  0  0  0  0  0  0  0  0
    0.7500   -3.8971    0.0000 C   0  0  0  0  0  0  0  0  0  0  0  0
    1.5000   -5.1962    0.0000 C   0  0  0  0  0  0  0  0  0  0  0  0
    3.0000   -5.1962    0.0000 O   0  0  0  0  0  0  0  0  0  0  0  0
    3.7500   -3.8971    0.0000 C   0  0  0  0  0  0  0  0  0  0  0  0
    3.0000   -2.5981    0.0000 C   0  0  0  0  0  0  0  0  0  0  0  0
    1.5000    0.0000    0.0000 N   0  0  0  0  0  0  0  0  0  0  0  0
    0.7500    1.2990    0.0000 C   0  0  0  0  0  0  0  0  0  0  0  0
    1.5000    2.5981    0.0000 C   0  0  0  0  0  0  0  0  0  0  0  0
    3.0000    2.5981    0.0000 C   0  0  0  0  0  0  0  0  0  0  0  0
    3.7500    3.8971    0.0000 C   0  0  0  0  0  0  0  0  0  0  0  0
    3.0000    5.1962    0.0000 N   0  0  0  0  0  0  0  0  0  0  0  0
    1.5000    5.1962    0.0000 C   0  0  0  0  0  0  0  0  0  0  0  0
    0.7500    3.8971    0.0000 C   0  0  0  0  0  0  0  0  0  0  0  0
   -0.7500    1.2990    0.0000 N   0  0  0  0  0  0  0  0  0  0  0  0
   -1.5000    0.0000    0.0000 C   0  0  0  0  0  0  0  0  0  0  0  0
   -2.9672   -0.3119    0.0000 N   0  0  0  0  0  0  0  0  0  0  0  0
   -4.0819    0.6918    0.0000 C   0  0  0  0  0  0  0  0  0  0  0  0
   -7.0211   -2.5537    0.0000 C   0  0  0  0  0  0  0  0  0  0  0  0
   -8.3202   -1.8037    0.0000 N   0  0  0  0  0  0  0  0  0  0  0  0
   -9.6192   -2.5537    0.0000 C   0  0  0  0  0  0  0  0  0  0  0  0
   -9.6192   -4.0537    0.0000 C   0  0  0  0  0  0  0  0  0  0  0  0
  -10.9182   -4.8037    0.0000 C   0  0  0  0  0  0  0  0  0  0  0  0
  -10.9182   -6.3037    0.0000 O   0  0  0  0  0  0  0  0  0  0  0  0
  -12.2173   -4.0537    0.0000 N   0  0  0  0  0  0  0  0  0  0  0  0
  -13.5163   -4.8037    0.0000 O   0  0  0  0  0  0  0  0  0  0  0  0
   -8.3202   -4.8037    0.0000 C   0  0  0  0  0  0  0  0  0  0  0  0
   -7.0211   -4.0537    0.0000 N   0  0  0  0  0  0  0  0  0  0  0  0
  1  2  1  0
  2  3  1  0
  3  4  1  0
  4  5  2  0
  5  6  1  0
  6  7  2  0
  7  8  1  0
  8  9  1  0
  9 10  1  0
 10 11  1  0
 11 12  1  0
 12 13  1  0
  7 14  1  0
 14 15  2  0
 15 16  1  0
 16 17  2  0
 17 18  1  0
 18 19  2  0
 19 20  1  0
 20 21  2  0
 15 22  1  0
 22 23  2  0
 23 24  1  0
 24 25  1  0
  2 26  1  0
 26 27  2  0
 27 28  1  0
 28 29  2  0
 29 30  1  0
 30 31  2  0
 30 32  1  0
 32 33  1  0
 29 34  1  0
 34 35  2  0
 24  4  1  0
 35 26  1  0
 23  6  1  0
 13  8  1  0
 21 16  1  0
M  END
>  <molecule_chembl_id>  (1253) 
CHEMBL3827517

>  <canonical_smiles>  (1253) 
CN(Cc1nc2c(N3CCOCC3)nc(-c3ccncc3)nc2n1C)c1ncc(C(=O)NO)cn1

>  <pchembl_value_mean>  (1253) 
8.55

>  <document_chembl_id>  (1253) 
CHEMBL3826921

$$$$

     RDKit          2D

 36 40  0  0  0  0  0  0  0  0999 V2000
   -5.7221   -0.3037    0.0000 C   0  0  0  0  0  0  0  0  0  0  0  0
   -5.7221   -1.8037    0.0000 N   0  0  0  0  0  0  0  0  0  0  0  0
   -4.4231   -2.5537    0.0000 C   0  0  0  0  0  0  0  0  0  0  0  0
   -3.1240   -1.8037    0.0000 C   0  0  0  0  0  0  0  0  0  0  0  0
   -1.7537   -2.4138    0.0000 N   0  0  0  0  0  0  0  0  0  0  0  0
   -0.7500   -1.2990    0.0000 C   0  0  0  0  0  0  0  0  0  0  0  0
    0.7500   -1.2990    0.0000 C   0  0  0  0  0  0  0  0  0  0  0  0
    1.5000   -2.5981    0.0000 N   0  0  0  0  0  0  0  0  0  0  0  0
    0.7500   -3.8971    0.0000 C   0  0  0  0  0  0  0  0  0  0  0  0
    1.5000   -5.1962    0.0000 C   0  0  0  0  0  0  0  0  0  0  0  0
    3.0000   -5.1962    0.0000 O   0  0  0  0  0  0  0  0  0  0  0  0
    3.7500   -3.8971    0.0000 C   0  0  0  0  0  0  0  0  0  0  0  0
    3.0000   -2.5981    0.0000 C   0  0  0  0  0  0  0  0  0  0  0  0
    1.5000    0.0000    0.0000 N   0  0  0  0  0  0  0  0  0  0  0  0
    0.7500    1.2990    0.0000 C   0  0  0  0  0  0  0  0  0  0  0  0
    1.5000    2.5981    0.0000 C   0  0  0  0  0  0  0  0  0  0  0  0
    3.0000    2.5981    0.0000 C   0  0  0  0  0  0  0  0  0  0  0  0
    3.7500    3.8971    0.0000 N   0  0  0  0  0  0  0  0  0  0  0  0
    3.0000    5.1962    0.0000 C   0  0  0  0  0  0  0  0  0  0  0  0
    3.7500    6.4952    0.0000 N   0  0  0  0  0  0  0  0  0  0  0  0
    1.5000    5.1962    0.0000 N   0  0  0  0  0  0  0  0  0  0  0  0
    0.7500    3.8971    0.0000 C   0  0  0  0  0  0  0  0  0  0  0  0
   -0.7500    1.2990    0.0000 N   0  0  0  0  0  0  0  0  0  0  0  0
   -1.5000    0.0000    0.0000 C   0  0  0  0  0  0  0  0  0  0  0  0
   -2.9672   -0.3119    0.0000 N   0  0  0  0  0  0  0  0  0  0  0  0
   -4.0819    0.6918    0.0000 C   0  0  0  0  0  0  0  0  0  0  0  0
   -7.0211   -2.5537    0.0000 C   0  0  0  0  0  0  0  0  0  0  0  0
   -8.3202   -1.8037    0.0000 N   0  0  0  0  0  0  0  0  0  0  0  0
   -9.6192   -2.5537    0.0000 C   0  0  0  0  0  0  0  0  0  0  0  0
   -9.6192   -4.0537    0.0000 C   0  0  0  0  0  0  0  0  0  0  0  0
  -10.9182   -4.8037    0.0000 C   0  0  0  0  0  0  0  0  0  0  0  0
  -10.9182   -6.3037    0.0000 O   0  0  0  0  0  0  0  0  0  0  0  0
  -12.2173   -4.0537    0.0000 N   0  0  0  0  0  0  0  0  0  0  0  0
  -13.5163   -4.8037    0.0000 O   0  0  0  0  0  0  0  0  0  0  0  0
   -8.3202   -4.8037    0.0000 C   0  0  0  0  0  0  0  0  0  0  0  0
   -7.0211   -4.0537    0.0000 N   0  0  0  0  0  0  0  0  0  0  0  0
  1  2  1  0
  2  3  1  0
  3  4  1  0
  4  5  2  0
  5  6  1  0
  6  7  2  0
  7  8  1  0
  8  9  1  0
  9 10  1  0
 10 11  1  0
 11 12  1  0
 12 13  1  0
  7 14  1  0
 14 15  2  0
 15 16  1  0
 16 17  2  0
 17 18  1  0
 18 19  2  0
 19 20  1  0
 19 21  1  0
 21 22  2  0
 15 23  1  0
 23 24  2  0
 24 25  1  0
 25 26  1  0
  2 27  1  0
 27 28  2  0
 28 29  1  0
 29 30  2  0
 30 31  1  0
 31 32  2  0
 31 33  1  0
 33 34  1  0
 30 35  1  0
 35 36  2  0
 25  4  1  0
 36 27  1  0
 24  6  1  0
 13  8  1  0
 22 16  1  0
M  END
>  <molecule_chembl_id>  (1254) 
CHEMBL3827894

>  <canonical_smiles>  (1254) 
CN(Cc1nc2c(N3CCOCC3)nc(-c3cnc(N)nc3)nc2n1C)c1ncc(C(=O)NO)cn1

>  <pchembl_value_mean>  (1254) 
8.58

>  <document_chembl_id>  (1254) 
CHEMBL3826921

$$$$

     RDKit          2D

 24 25  0  0  0  0  0  0  0  0999 V2000
   -3.0000   -7.7942    0.0000 O   0  0  0  0  0  0  0  0  0  0  0  0
   -3.7500   -6.4952    0.0000 C   0  0  0  0  0  0  0  0  0  0  0  0
   -3.0000   -5.1962    0.0000 C   0  0  0  0  0  0  0  0  0  0  0  0
   -1.5000   -5.1962    0.0000 C   0  0  0  0  0  0  0  0  0  0  0  0
   -0.7500   -3.8971    0.0000 C   0  0  0  0  0  0  0  0  0  0  0  0
    0.7500   -3.8971    0.0000 C   0  0  0  0  0  0  0  0  0  0  0  0
    1.5000   -2.5981    0.0000 C   0  0  0  0  0  0  0  0  0  0  0  0
    0.7500   -1.2990    0.0000 C   0  0  0  0  0  0  0  0  0  0  0  0
    1.5000    0.0000    0.0000 C   0  0  0  0  0  0  0  0  0  0  0  0
    0.7500    1.2990    0.0000 C   0  0  0  0  0  0  0  0  0  0  0  0
   -0.7500    1.2990    0.0000 C   0  0  0  0  0  0  0  0  0  0  0  0
   -1.5000    0.0000    0.0000 N   0  0  0  0  0  0  0  0  0  0  0  0
   -0.7500   -1.2990    0.0000 C   0  0  0  0  0  0  0  0  0  0  0  0
   -1.5000   -2.5981    0.0000 C   0  0  0  0  0  0  0  0  0  0  0  0
   -5.2500   -6.4952    0.0000 N   0  0  0  0  0  0  0  0  0  0  0  0
   -6.0000   -7.7942    0.0000 C   0  0  0  0  0  0  0  0  0  0  0  0
   -7.5000   -7.7942    0.0000 C   0  0  0  0  0  0  0  0  0  0  0  0
   -8.2500   -9.0933    0.0000 C   0  0  0  0  0  0  0  0  0  0  0  0
   -9.7500   -9.0933    0.0000 C   0  0  0  0  0  0  0  0  0  0  0  0
  -10.5000  -10.3923    0.0000 C   0  0  0  0  0  0  0  0  0  0  0  0
  -12.0000  -10.3923    0.0000 C   0  0  0  0  0  0  0  0  0  0  0  0
  -12.7500   -9.0933    0.0000 O   0  0  0  0  0  0  0  0  0  0  0  0
  -12.7500  -11.6913    0.0000 N   0  0  0  0  0  0  0  0  0  0  0  0
  -14.2500  -11.6913    0.0000 O   0  0  0  0  0  0  0  0  0  0  0  0
  1  2  2  0
  2  3  1  0
  3  4  2  3
  4  5  1  0
  5  6  2  0
  6  7  1  0
  7  8  2  0
  8  9  1  0
  9 10  2  0
 10 11  1  0
 11 12  2  0
 12 13  1  0
 13 14  2  0
  2 15  1  0
 15 16  1  0
 16 17  1  0
 17 18  1  0
 18 19  1  0
 19 20  1  0
 20 21  1  0
 21 22  2  0
 21 23  1  0
 23 24  1  0
 14  5  1  0
 13  8  1  0
M  END
>  <molecule_chembl_id>  (1255) 
CHEMBL484073

>  <canonical_smiles>  (1255) 
O=C(C=Cc1ccc2cccnc2c1)NCCCCCC(=O)NO

>  <pchembl_value_mean>  (1255) 
8.6

>  <document_chembl_id>  (1255) 
CHEMBL1137690

$$$$

     RDKit          2D

 33 35  0  0  0  0  0  0  0  0999 V2000
    1.5922    6.6948    0.0000 C   0  0  0  0  0  0  0  0  0  0  0  0
    0.1004    6.8516    0.0000 C   0  0  0  0  0  0  0  0  0  0  0  0
   -0.5097    8.2219    0.0000 C   0  0  0  0  0  0  0  0  0  0  0  0
   -0.7813    5.6380    0.0000 C   0  0  0  0  0  0  0  0  0  0  0  0
    0.2369    4.5365    0.0000 N   0  0  0  0  0  0  0  0  0  0  0  0
    0.7561    3.1293    0.0000 C   0  0  0  0  0  0  0  0  0  0  0  0
    2.2376    3.3639    0.0000 O   0  0  0  0  0  0  0  0  0  0  0  0
    0.3943    1.2135    0.0000 C   0  0  0  0  0  0  0  0  0  0  0  0
    0.4790    2.4256    0.0000 C   0  0  0  0  0  0  0  0  0  0  0  0
    1.2760    0.0000    0.0000 C   0  0  0  0  0  0  0  0  0  0  0  0
    0.3943   -1.2135    0.0000 S   0  0  0  0  0  0  0  0  0  0  0  0
   -1.0323   -0.7500    0.0000 C   0  0  0  0  0  0  0  0  0  0  0  0
   -1.0323    0.7500    0.0000 N   0  0  0  0  0  0  0  0  0  0  0  0
   -2.4396   -1.2692    0.0000 C   0  0  0  0  0  0  0  0  0  0  0  0
   -3.2233   -2.5481    0.0000 C   0  0  0  0  0  0  0  0  0  0  0  0
   -4.6819   -2.1980    0.0000 S   0  0  0  0  0  0  0  0  0  0  0  0
   -5.3006   -0.5823    0.0000 C   0  0  0  0  0  0  0  0  0  0  0  0
   -3.9384   -1.2103    0.0000 N   0  0  0  0  0  0  0  0  0  0  0  0
   -6.3188    0.5192    0.0000 C   0  0  0  0  0  0  0  0  0  0  0  0
   -6.8380    1.9265    0.0000 N   0  0  0  0  0  0  0  0  0  0  0  0
   -6.7791    3.4253    0.0000 C   0  0  0  0  0  0  0  0  0  0  0  0
   -8.2377    3.7755    0.0000 O   0  0  0  0  0  0  0  0  0  0  0  0
   -6.1511    4.7875    0.0000 C   0  0  0  0  0  0  0  0  0  0  0  0
   -5.0496    5.8057    0.0000 C   0  0  0  0  0  0  0  0  0  0  0  0
   -5.8334    7.0847    0.0000 C   0  0  0  0  0  0  0  0  0  0  0  0
   -5.1177    8.4029    0.0000 C   0  0  0  0  0  0  0  0  0  0  0  0
   -3.6182    8.4422    0.0000 F   0  0  0  0  0  0  0  0  0  0  0  0
   -5.9014    9.6819    0.0000 C   0  0  0  0  0  0  0  0  0  0  0  0
   -5.1857   11.0001    0.0000 C   0  0  0  0  0  0  0  0  0  0  0  0
   -5.9694   12.2791    0.0000 S   0  0  0  0  0  0  0  0  0  0  0  0
   -3.6424    6.3249    0.0000 O   0  0  0  0  0  0  0  0  0  0  0  0
   -2.1435    6.2660    0.0000 C   0  0  0  0  0  0  0  0  0  0  0  0
   -1.7933    7.7246    0.0000 O   0  0  0  0  0  0  0  0  0  0  0  0
  1  2  1  0
  2  3  1  0
  2  4  1  0
  4  5  1  0
  5  6  1  0
  6  7  2  0
  6  8  1  0
  8  9  1  0
  8 10  1  0
 10 11  1  0
 11 12  1  0
 12 13  2  0
 12 14  1  0
 14 15  2  0
 15 16  1  0
 16 17  1  0
 17 18  2  0
 17 19  1  0
 19 20  1  0
 20 21  1  0
 21 22  2  0
 21 23  1  0
 23 24  1  0
 24 25  1  0
 25 26  2  3
 26 27  1  0
 26 28  1  0
 28 29  1  0
 29 30  1  0
 24 31  1  0
 31 32  1  0
 32 33  2  0
 32  4  1  0
 13  8  1  0
 18 14  1  0
M  END
>  <molecule_chembl_id>  (1256) 
CHEMBL4441774

>  <canonical_smiles>  (1256) 
CC(C)C1NC(=O)C2(C)CSC(=N2)c2csc(n2)CNC(=O)CC(C=C(F)CCS)OC1=O

>  <pchembl_value_mean>  (1256) 
8.61

>  <document_chembl_id>  (1256) 
CHEMBL4359920

$$$$

     RDKit          2D

 28 30  0  0  0  0  0  0  0  0999 V2000
   -9.4612   -4.0396    0.0000 C   0  0  0  0  0  0  0  0  0  0  0  0
   -8.3464   -5.0433    0.0000 O   0  0  0  0  0  0  0  0  0  0  0  0
   -6.9199   -4.5797    0.0000 C   0  0  0  0  0  0  0  0  0  0  0  0
   -6.6080   -3.1125    0.0000 C   0  0  0  0  0  0  0  0  0  0  0  0
   -5.1814   -2.6490    0.0000 C   0  0  0  0  0  0  0  0  0  0  0  0
   -4.0667   -3.6527    0.0000 C   0  0  0  0  0  0  0  0  0  0  0  0
   -2.6401   -3.1891    0.0000 S   0  0  0  0  0  0  0  0  0  0  0  0
   -3.1036   -1.7626    0.0000 O   0  0  0  0  0  0  0  0  0  0  0  0
   -2.1766   -4.6157    0.0000 O   0  0  0  0  0  0  0  0  0  0  0  0
   -1.2135   -2.7256    0.0000 N   0  0  0  0  0  0  0  0  0  0  0  0
   -0.0000   -3.6073    0.0000 C   0  0  0  0  0  0  0  0  0  0  0  0
    1.2135   -2.7256    0.0000 C   0  0  0  0  0  0  0  0  0  0  0  0
    0.7500   -1.2990    0.0000 C   0  0  0  0  0  0  0  0  0  0  0  0
    1.5000    0.0000    0.0000 C   0  0  0  0  0  0  0  0  0  0  0  0
    0.7500    1.2990    0.0000 C   0  0  0  0  0  0  0  0  0  0  0  0
    1.5000    2.5981    0.0000 C   0  0  0  0  0  0  0  0  0  0  0  0
    3.0000    2.5981    0.0000 C   0  0  0  0  0  0  0  0  0  0  0  0
    3.7500    3.8971    0.0000 C   0  0  0  0  0  0  0  0  0  0  0  0
    3.0000    5.1962    0.0000 O   0  0  0  0  0  0  0  0  0  0  0  0
    5.2500    3.8971    0.0000 N   0  0  0  0  0  0  0  0  0  0  0  0
    6.0000    5.1962    0.0000 O   0  0  0  0  0  0  0  0  0  0  0  0
   -0.7500    1.2990    0.0000 C   0  0  0  0  0  0  0  0  0  0  0  0
   -1.5000    0.0000    0.0000 C   0  0  0  0  0  0  0  0  0  0  0  0
   -0.7500   -1.2990    0.0000 C   0  0  0  0  0  0  0  0  0  0  0  0
   -4.3786   -5.1199    0.0000 C   0  0  0  0  0  0  0  0  0  0  0  0
   -5.8051   -5.5834    0.0000 C   0  0  0  0  0  0  0  0  0  0  0  0
   -6.1170   -7.0506    0.0000 O   0  0  0  0  0  0  0  0  0  0  0  0
   -5.0023   -8.0543    0.0000 C   0  0  0  0  0  0  0  0  0  0  0  0
  1  2  1  0
  2  3  1  0
  3  4  2  0
  4  5  1  0
  5  6  2  0
  6  7  1  0
  7  8  2  0
  7  9  2  0
  7 10  1  0
 10 11  1  0
 11 12  2  0
 12 13  1  0
 13 14  2  0
 14 15  1  0
 15 16  1  0
 16 17  2  3
 17 18  1  0
 18 19  2  0
 18 20  1  0
 20 21  1  0
 15 22  2  0
 22 23  1  0
 23 24  2  0
  6 25  1  0
 25 26  2  0
 26 27  1  0
 27 28  1  0
 26  3  1  0
 24 10  1  0
 24 13  1  0
M  END
>  <molecule_chembl_id>  (1257) 
CHEMBL2048750

>  <canonical_smiles>  (1257) 
COc1ccc(S(=O)(=O)n2ccc3cc(C=CC(=O)NO)ccc32)cc1OC

>  <pchembl_value_mean>  (1257) 
8.64

>  <document_chembl_id>  (1257) 
CHEMBL2046324

$$$$

     RDKit          2D

 40 44  0  0  0  0  0  0  0  0999 V2000
   10.7824  -15.8378    0.0000 C   0  0  0  0  0  0  0  0  0  0  0  0
    9.4121  -15.2277    0.0000 C   0  0  0  0  0  0  0  0  0  0  0  0
    9.2553  -13.7359    0.0000 C   0  0  0  0  0  0  0  0  0  0  0  0
   10.4688  -12.8543    0.0000 O   0  0  0  0  0  0  0  0  0  0  0  0
    7.8850  -13.1258    0.0000 C   0  0  0  0  0  0  0  0  0  0  0  0
    7.7282  -11.6340    0.0000 C   0  0  0  0  0  0  0  0  0  0  0  0
    6.3579  -11.0239    0.0000 C   0  0  0  0  0  0  0  0  0  0  0  0
    6.2011   -9.5322    0.0000 C   0  0  0  0  0  0  0  0  0  0  0  0
    4.8308   -8.9221    0.0000 C   0  0  0  0  0  0  0  0  0  0  0  0
    4.6740   -7.4303    0.0000 C   0  0  0  0  0  0  0  0  0  0  0  0
    5.8875   -6.5486    0.0000 N   0  0  0  0  0  0  0  0  0  0  0  0
    7.2578   -7.1587    0.0000 C   0  0  0  0  0  0  0  0  0  0  0  0
    7.4146   -8.6505    0.0000 O   0  0  0  0  0  0  0  0  0  0  0  0
    8.4713   -6.2770    0.0000 C   0  0  0  0  0  0  0  0  0  0  0  0
    9.0814   -4.9067    0.0000 C   0  0  0  0  0  0  0  0  0  0  0  0
    9.9631   -6.1202    0.0000 C   0  0  0  0  0  0  0  0  0  0  0  0
   10.1199   -7.6120    0.0000 C   0  0  0  0  0  0  0  0  0  0  0  0
   11.4902   -8.2221    0.0000 C   0  0  0  0  0  0  0  0  0  0  0  0
   12.7038   -7.3404    0.0000 N   0  0  0  0  0  0  0  0  0  0  0  0
   14.0741   -7.9505    0.0000 C   0  0  0  0  0  0  0  0  0  0  0  0
   14.2309   -9.4423    0.0000 C   0  0  0  0  0  0  0  0  0  0  0  0
   12.5470   -5.8487    0.0000 C   0  0  0  0  0  0  0  0  0  0  0  0
   11.1766   -5.2386    0.0000 C   0  0  0  0  0  0  0  0  0  0  0  0
    3.3037   -6.8202    0.0000 C   0  0  0  0  0  0  0  0  0  0  0  0
    2.0046   -7.5702    0.0000 N   0  0  0  0  0  0  0  0  0  0  0  0
    0.8899   -6.5665    0.0000 C   0  0  0  0  0  0  0  0  0  0  0  0
    1.5000   -5.1962    0.0000 C   0  0  0  0  0  0  0  0  0  0  0  0
    0.7500   -3.8971    0.0000 C   0  0  0  0  0  0  0  0  0  0  0  0
    1.5000   -2.5981    0.0000 C   0  0  0  0  0  0  0  0  0  0  0  0
    0.7500   -1.2990    0.0000 C   0  0  0  0  0  0  0  0  0  0  0  0
    1.5000    0.0000    0.0000 C   0  0  0  0  0  0  0  0  0  0  0  0
    0.7500    1.2990    0.0000 C   0  0  0  0  0  0  0  0  0  0  0  0
   -0.7500    1.2990    0.0000 C   0  0  0  0  0  0  0  0  0  0  0  0
   -1.5000    0.0000    0.0000 N   0  0  0  0  0  0  0  0  0  0  0  0
   -0.7500   -1.2990    0.0000 C   0  0  0  0  0  0  0  0  0  0  0  0
   -1.5000   -2.5981    0.0000 C   0  0  0  0  0  0  0  0  0  0  0  0
   -0.7500   -3.8971    0.0000 C   0  0  0  0  0  0  0  0  0  0  0  0
   -1.5000   -5.1962    0.0000 O   0  0  0  0  0  0  0  0  0  0  0  0
   -3.0000   -5.1962    0.0000 C   0  0  0  0  0  0  0  0  0  0  0  0
    2.9918   -5.3529    0.0000 O   0  0  0  0  0  0  0  0  0  0  0  0
  1  2  1  0
  2  3  1  0
  3  4  2  0
  3  5  1  0
  5  6  1  0
  6  7  1  0
  7  8  1  0
  8  9  1  0
  9 10  1  0
 10 11  1  0
 11 12  1  0
 12 13  2  0
 12 14  1  0
 14 15  1  0
 15 16  1  0
 16 17  1  0
 17 18  1  0
 18 19  1  0
 19 20  1  0
 20 21  1  0
 19 22  1  0
 22 23  1  0
 10 24  1  0
 24 25  2  0
 25 26  1  0
 26 27  2  0
 27 28  1  0
 28 29  2  0
 29 30  1  0
 30 31  2  0
 31 32  1  0
 32 33  2  0
 33 34  1  0
 34 35  2  0
 35 36  1  0
 36 37  2  0
 37 38  1  0
 38 39  1  0
 27 40  1  0
 16 14  1  0
 40 24  1  0
 23 16  1  0
 37 28  1  0
 35 30  1  0
M  END
>  <molecule_chembl_id>  (1258) 
CHEMBL4873493

>  <canonical_smiles>  (1258) 
CCC(=O)CCCCCC(NC(=O)C1CC12CCN(CC)CC2)c1ncc(-c2cc3cccnc3cc2OC)o1

>  <pchembl_value_mean>  (1258) 
8.66

>  <document_chembl_id>  (1258) 
CHEMBL4825740

$$$$

     RDKit          2D

 26 27  0  0  0  0  0  0  0  0999 V2000
   12.0000   -7.7942    0.0000 O   0  0  0  0  0  0  0  0  0  0  0  0
   12.7500   -6.4952    0.0000 C   0  0  0  0  0  0  0  0  0  0  0  0
   12.0000   -5.1962    0.0000 C   0  0  0  0  0  0  0  0  0  0  0  0
   10.5000   -5.1962    0.0000 C   0  0  0  0  0  0  0  0  0  0  0  0
    9.7500   -3.8971    0.0000 C   0  0  0  0  0  0  0  0  0  0  0  0
    8.2500   -3.8971    0.0000 C   0  0  0  0  0  0  0  0  0  0  0  0
    7.5000   -2.5981    0.0000 C   0  0  0  0  0  0  0  0  0  0  0  0
    6.0000   -2.5981    0.0000 C   0  0  0  0  0  0  0  0  0  0  0  0
    5.2500   -3.8971    0.0000 O   0  0  0  0  0  0  0  0  0  0  0  0
    5.2500   -1.2990    0.0000 N   0  0  0  0  0  0  0  0  0  0  0  0
    3.7500   -1.2990    0.0000 N   0  0  0  0  0  0  0  0  0  0  0  0
    3.0000    0.0000    0.0000 C   0  0  0  0  0  0  0  0  0  0  0  0
    1.5000    0.0000    0.0000 C   0  0  0  0  0  0  0  0  0  0  0  0
    0.7500   -1.2990    0.0000 C   0  0  0  0  0  0  0  0  0  0  0  0
   -0.7500   -1.2990    0.0000 C   0  0  0  0  0  0  0  0  0  0  0  0
   -1.5000    0.0000    0.0000 C   0  0  0  0  0  0  0  0  0  0  0  0
   -3.0000    0.0000    0.0000 C   0  0  0  0  0  0  0  0  0  0  0  0
   -3.7500    1.2990    0.0000 C   0  0  0  0  0  0  0  0  0  0  0  0
   -5.2500    1.2990    0.0000 C   0  0  0  0  0  0  0  0  0  0  0  0
   -6.0000    0.0000    0.0000 C   0  0  0  0  0  0  0  0  0  0  0  0
   -5.2500   -1.2990    0.0000 C   0  0  0  0  0  0  0  0  0  0  0  0
   -3.7500   -1.2990    0.0000 C   0  0  0  0  0  0  0  0  0  0  0  0
   -0.7500    1.2990    0.0000 C   0  0  0  0  0  0  0  0  0  0  0  0
    0.7500    1.2990    0.0000 C   0  0  0  0  0  0  0  0  0  0  0  0
   14.2500   -6.4952    0.0000 N   0  0  0  0  0  0  0  0  0  0  0  0
   15.0000   -7.7942    0.0000 O   0  0  0  0  0  0  0  0  0  0  0  0
  1  2  2  0
  2  3  1  0
  3  4  1  0
  4  5  1  0
  5  6  1  0
  6  7  1  0
  7  8  1  0
  8  9  2  0
  8 10  1  0
 10 11  1  0
 11 12  2  3
 12 13  1  0
 13 14  2  0
 14 15  1  0
 15 16  2  0
 16 17  1  0
 17 18  2  0
 18 19  1  0
 19 20  2  0
 20 21  1  0
 21 22  2  0
 16 23  1  0
 23 24  2  0
  2 25  1  0
 25 26  1  0
 24 13  1  0
 22 17  1  0
M  END
>  <molecule_chembl_id>  (1259) 
CHEMBL3759982

>  <canonical_smiles>  (1259) 
O=C(CCCCCC(=O)NN=Cc1ccc(-c2ccccc2)cc1)NO

>  <pchembl_value_mean>  (1259) 
8.68

>  <document_chembl_id>  (1259) 
CHEMBL3758132

$$$$

     RDKit          2D

 39 43  0  0  0  0  0  0  0  0999 V2000
   -4.2606  -14.8714    0.0000 C   0  0  0  0  0  0  0  0  0  0  0  0
   -4.1038  -13.3796    0.0000 C   0  0  0  0  0  0  0  0  0  0  0  0
   -2.7335  -12.7695    0.0000 C   0  0  0  0  0  0  0  0  0  0  0  0
   -1.5200  -13.6512    0.0000 O   0  0  0  0  0  0  0  0  0  0  0  0
   -2.5767  -11.2778    0.0000 C   0  0  0  0  0  0  0  0  0  0  0  0
   -1.2064  -10.6676    0.0000 C   0  0  0  0  0  0  0  0  0  0  0  0
   -1.0496   -9.1759    0.0000 C   0  0  0  0  0  0  0  0  0  0  0  0
    0.3207   -8.5658    0.0000 C   0  0  0  0  0  0  0  0  0  0  0  0
    0.4775   -7.0740    0.0000 C   0  0  0  0  0  0  0  0  0  0  0  0
    1.8478   -6.4639    0.0000 C   0  0  0  0  0  0  0  0  0  0  0  0
    3.0613   -7.3456    0.0000 N   0  0  0  0  0  0  0  0  0  0  0  0
    2.9046   -8.8373    0.0000 C   0  0  0  0  0  0  0  0  0  0  0  0
    1.5342   -9.4474    0.0000 O   0  0  0  0  0  0  0  0  0  0  0  0
    4.1181   -9.7190    0.0000 C   0  0  0  0  0  0  0  0  0  0  0  0
    5.6099   -9.8758    0.0000 C   0  0  0  0  0  0  0  0  0  0  0  0
    4.7282  -11.0893    0.0000 C   0  0  0  0  0  0  0  0  0  0  0  0
    3.3579  -11.6994    0.0000 C   0  0  0  0  0  0  0  0  0  0  0  0
    3.2011  -13.1912    0.0000 C   0  0  0  0  0  0  0  0  0  0  0  0
    4.4146  -14.0729    0.0000 N   0  0  0  0  0  0  0  0  0  0  0  0
    4.2578  -15.5647    0.0000 C   0  0  0  0  0  0  0  0  0  0  0  0
    5.7849  -13.4628    0.0000 C   0  0  0  0  0  0  0  0  0  0  0  0
    5.9417  -11.9710    0.0000 C   0  0  0  0  0  0  0  0  0  0  0  0
    2.0046   -4.9721    0.0000 C   0  0  0  0  0  0  0  0  0  0  0  0
    0.8899   -3.9684    0.0000 N   0  0  0  0  0  0  0  0  0  0  0  0
    1.5000   -2.5981    0.0000 C   0  0  0  0  0  0  0  0  0  0  0  0
    0.7500   -1.2990    0.0000 C   0  0  0  0  0  0  0  0  0  0  0  0
    1.5000    0.0000    0.0000 C   0  0  0  0  0  0  0  0  0  0  0  0
    0.7500    1.2990    0.0000 C   0  0  0  0  0  0  0  0  0  0  0  0
   -0.7500    1.2990    0.0000 C   0  0  0  0  0  0  0  0  0  0  0  0
   -1.7537    2.4138    0.0000 N   0  0  0  0  0  0  0  0  0  0  0  0
   -3.1240    1.8037    0.0000 N   0  0  0  0  0  0  0  0  0  0  0  0
   -4.4231    2.5537    0.0000 C   0  0  0  0  0  0  0  0  0  0  0  0
   -2.9672    0.3119    0.0000 C   0  0  0  0  0  0  0  0  0  0  0  0
   -1.5000    0.0000    0.0000 C   0  0  0  0  0  0  0  0  0  0  0  0
   -0.7500   -1.2990    0.0000 C   0  0  0  0  0  0  0  0  0  0  0  0
    2.9918   -2.7549    0.0000 N   0  0  0  0  0  0  0  0  0  0  0  0
    3.3037   -4.2221    0.0000 C   0  0  0  0  0  0  0  0  0  0  0  0
    4.6740   -4.8322    0.0000 C   0  0  0  0  0  0  0  0  0  0  0  0
    6.0443   -5.4423    0.0000 N   0  0  0  0  0  0  0  0  0  0  0  0
  1  2  1  0
  2  3  1  0
  3  4  2  0
  3  5  1  0
  5  6  1  0
  6  7  1  0
  7  8  1  0
  8  9  1  0
  9 10  1  0
 10 11  1  0
 11 12  1  0
 12 13  2  0
 12 14  1  0
 14 15  1  0
 15 16  1  0
 16 17  1  0
 17 18  1  0
 18 19  1  0
 19 20  1  0
 19 21  1  0
 21 22  1  0
 10 23  1  0
 23 24  1  0
 24 25  1  0
 25 26  1  0
 26 27  1  0
 27 28  2  0
 28 29  1  0
 29 30  2  0
 30 31  1  0
 31 32  1  0
 31 33  1  0
 33 34  2  0
 34 35  1  0
 25 36  2  0
 36 37  1  0
 37 38  1  0
 38 39  3  0
 16 14  1  0
 37 23  2  0
 22 16  1  0
 35 26  2  0
 34 29  1  0
M  END
>  <molecule_chembl_id>  (1260) 
CHEMBL4761973

>  <canonical_smiles>  (1260) 
CCC(=O)CCCCCC(NC(=O)C1CC12CCN(C)CC2)c1[nH]c(-c2ccc3nn(C)cc3c2)nc1C#N

>  <pchembl_value_mean>  (1260) 
8.68

>  <document_chembl_id>  (1260) 
CHEMBL4665726

$$$$

     RDKit          2D

 37 40  0  0  0  0  0  0  0  0999 V2000
   14.7990   -8.5442    0.0000 C   0  0  0  0  0  0  0  0  0  0  0  0
   13.2990   -8.5442    0.0000 C   0  0  0  0  0  0  0  0  0  0  0  0
   12.5490   -7.2452    0.0000 C   0  0  0  0  0  0  0  0  0  0  0  0
   13.2990   -5.9462    0.0000 O   0  0  0  0  0  0  0  0  0  0  0  0
   11.0490   -7.2452    0.0000 C   0  0  0  0  0  0  0  0  0  0  0  0
   10.2990   -5.9462    0.0000 C   0  0  0  0  0  0  0  0  0  0  0  0
    8.7990   -5.9462    0.0000 C   0  0  0  0  0  0  0  0  0  0  0  0
    8.0490   -4.6471    0.0000 C   0  0  0  0  0  0  0  0  0  0  0  0
    6.5490   -4.6471    0.0000 C   0  0  0  0  0  0  0  0  0  0  0  0
    5.7990   -3.3481    0.0000 C   0  0  0  0  0  0  0  0  0  0  0  0
    4.2990   -3.3481    0.0000 N   0  0  0  0  0  0  0  0  0  0  0  0
    3.5490   -2.0490    0.0000 C   0  0  0  0  0  0  0  0  0  0  0  0
    4.2990   -0.7500    0.0000 O   0  0  0  0  0  0  0  0  0  0  0  0
    2.0490   -2.0490    0.0000 C   0  0  0  0  0  0  0  0  0  0  0  0
    0.7500   -2.7990    0.0000 C   0  0  0  0  0  0  0  0  0  0  0  0
    0.7500   -1.2990    0.0000 C   0  0  0  0  0  0  0  0  0  0  0  0
    1.5000    0.0000    0.0000 C   0  0  0  0  0  0  0  0  0  0  0  0
    0.7500    1.2990    0.0000 C   0  0  0  0  0  0  0  0  0  0  0  0
   -0.7500    1.2990    0.0000 N   0  0  0  0  0  0  0  0  0  0  0  0
   -1.5000    2.5981    0.0000 C   0  0  0  0  0  0  0  0  0  0  0  0
   -0.7500    3.8971    0.0000 C   0  0  0  0  0  0  0  0  0  0  0  0
   -1.5000    0.0000    0.0000 C   0  0  0  0  0  0  0  0  0  0  0  0
   -0.7500   -1.2990    0.0000 C   0  0  0  0  0  0  0  0  0  0  0  0
    6.5490   -2.0490    0.0000 C   0  0  0  0  0  0  0  0  0  0  0  0
    5.9389   -0.6787    0.0000 N   0  0  0  0  0  0  0  0  0  0  0  0
    7.0537    0.3250    0.0000 C   0  0  0  0  0  0  0  0  0  0  0  0
    8.3527   -0.4250    0.0000 C   0  0  0  0  0  0  0  0  0  0  0  0
    9.7230    0.1851    0.0000 C   0  0  0  0  0  0  0  0  0  0  0  0
   10.9365   -0.6966    0.0000 C   0  0  0  0  0  0  0  0  0  0  0  0
   12.3069   -0.0865    0.0000 C   0  0  0  0  0  0  0  0  0  0  0  0
   13.5204   -0.9682    0.0000 C   0  0  0  0  0  0  0  0  0  0  0  0
   12.4636    1.4053    0.0000 C   0  0  0  0  0  0  0  0  0  0  0  0
   11.2501    2.2870    0.0000 C   0  0  0  0  0  0  0  0  0  0  0  0
    9.8798    1.6769    0.0000 C   0  0  0  0  0  0  0  0  0  0  0  0
    8.6663    2.5585    0.0000 O   0  0  0  0  0  0  0  0  0  0  0  0
    8.8231    4.0503    0.0000 C   0  0  0  0  0  0  0  0  0  0  0  0
    8.0408   -1.8922    0.0000 N   0  0  0  0  0  0  0  0  0  0  0  0
  1  2  1  0
  2  3  1  0
  3  4  2  0
  3  5  1  0
  5  6  1  0
  6  7  1  0
  7  8  1  0
  8  9  1  0
  9 10  1  0
 10 11  1  0
 11 12  1  0
 12 13  2  0
 12 14  1  0
 14 15  1  0
 15 16  1  0
 16 17  1  0
 17 18  1  0
 18 19  1  0
 19 20  1  0
 20 21  1  0
 19 22  1  0
 22 23  1  0
 10 24  1  0
 24 25  2  0
 25 26  1  0
 26 27  2  0
 27 28  1  0
 28 29  2  0
 29 30  1  0
 30 31  1  0
 30 32  2  0
 32 33  1  0
 33 34  2  0
 34 35  1  0
 35 36  1  0
 27 37  1  0
 16 14  1  0
 37 24  1  0
 23 16  1  0
 34 28  1  0
M  END
>  <molecule_chembl_id>  (1261) 
CHEMBL4792257

>  <canonical_smiles>  (1261) 
CCC(=O)CCCCCC(NC(=O)C1CC12CCN(CC)CC2)c1ncc(-c2cc(C)ccc2OC)[nH]1

>  <pchembl_value_mean>  (1261) 
8.7

>  <document_chembl_id>  (1261) 
CHEMBL4680369

$$$$

     RDKit          2D

 35 39  0  0  0  0  0  0  0  0999 V2000
  -10.8483    1.0185    0.0000 O   0  0  0  0  0  0  0  0  0  0  0  0
   -9.4575    0.4566    0.0000 C   0  0  0  0  0  0  0  0  0  0  0  0
   -8.2755    1.3801    0.0000 N   0  0  0  0  0  0  0  0  0  0  0  0
   -8.4843    2.8655    0.0000 O   0  0  0  0  0  0  0  0  0  0  0  0
   -9.2488   -1.0288    0.0000 C   0  0  0  0  0  0  0  0  0  0  0  0
   -7.8580   -1.5907    0.0000 C   0  0  0  0  0  0  0  0  0  0  0  0
   -7.6493   -3.0761    0.0000 N   0  0  0  0  0  0  0  0  0  0  0  0
   -8.8313   -3.9996    0.0000 C   0  0  0  0  0  0  0  0  0  0  0  0
   -8.6225   -5.4850    0.0000 N   0  0  0  0  0  0  0  0  0  0  0  0
   -7.2317   -6.0469    0.0000 C   0  0  0  0  0  0  0  0  0  0  0  0
   -8.0266   -7.3190    0.0000 C   0  0  0  0  0  0  0  0  0  0  0  0
   -9.5257   -7.2667    0.0000 C   0  0  0  0  0  0  0  0  0  0  0  0
  -10.3206   -8.5387    0.0000 C   0  0  0  0  0  0  0  0  0  0  0  0
   -9.6164   -9.8632    0.0000 C   0  0  0  0  0  0  0  0  0  0  0  0
   -8.1173   -9.9155    0.0000 C   0  0  0  0  0  0  0  0  0  0  0  0
   -7.3224   -8.6434    0.0000 C   0  0  0  0  0  0  0  0  0  0  0  0
   -6.1170   -7.0506    0.0000 C   0  0  0  0  0  0  0  0  0  0  0  0
   -4.6904   -6.5871    0.0000 C   0  0  0  0  0  0  0  0  0  0  0  0
   -4.3786   -5.1199    0.0000 N   0  0  0  0  0  0  0  0  0  0  0  0
   -2.9520   -4.6564    0.0000 C   0  0  0  0  0  0  0  0  0  0  0  0
   -1.8373   -5.6601    0.0000 O   0  0  0  0  0  0  0  0  0  0  0  0
   -2.6401   -3.1891    0.0000 C   0  0  0  0  0  0  0  0  0  0  0  0
   -1.2135   -2.7256    0.0000 C   0  0  0  0  0  0  0  0  0  0  0  0
   -0.0000   -3.6073    0.0000 C   0  0  0  0  0  0  0  0  0  0  0  0
    1.2135   -2.7256    0.0000 N   0  0  0  0  0  0  0  0  0  0  0  0
    0.7500   -1.2990    0.0000 C   0  0  0  0  0  0  0  0  0  0  0  0
    1.5000    0.0000    0.0000 C   0  0  0  0  0  0  0  0  0  0  0  0
    0.7500    1.2990    0.0000 C   0  0  0  0  0  0  0  0  0  0  0  0
   -0.7500    1.2990    0.0000 C   0  0  0  0  0  0  0  0  0  0  0  0
   -1.5000    0.0000    0.0000 C   0  0  0  0  0  0  0  0  0  0  0  0
   -0.7500   -1.2990    0.0000 C   0  0  0  0  0  0  0  0  0  0  0  0
   -5.4933   -4.1162    0.0000 C   0  0  0  0  0  0  0  0  0  0  0  0
   -6.9199   -4.5797    0.0000 C   0  0  0  0  0  0  0  0  0  0  0  0
  -10.2220   -3.4377    0.0000 N   0  0  0  0  0  0  0  0  0  0  0  0
  -10.4308   -1.9523    0.0000 C   0  0  0  0  0  0  0  0  0  0  0  0
  1  2  2  0
  2  3  1  0
  3  4  1  0
  2  5  1  0
  5  6  2  0
  6  7  1  0
  7  8  2  0
  8  9  1  0
  9 10  1  0
 10 11  1  0
 11 12  2  0
 12 13  1  0
 13 14  2  0
 14 15  1  0
 15 16  2  0
 10 17  1  0
 17 18  1  0
 18 19  1  0
 19 20  1  0
 20 21  2  0
 20 22  1  0
 22 23  1  0
 23 24  2  0
 24 25  1  0
 25 26  1  0
 26 27  2  0
 27 28  1  0
 28 29  2  0
 29 30  1  0
 30 31  2  0
 19 32  1  0
 32 33  1  0
  8 34  1  0
 34 35  2  0
 35  5  1  0
 33 10  1  0
 16 11  1  0
 31 23  1  0
 31 26  1  0
M  END
>  <molecule_chembl_id>  (1262) 
CHEMBL3891420

>  <canonical_smiles>  (1262) 
O=C(NO)c1cnc(NC2(c3ccccc3)CCN(C(=O)Cc3c[nH]c4ccccc34)CC2)nc1

>  <pchembl_value_mean>  (1262) 
8.7

>  <document_chembl_id>  (1262) 
CHEMBL3886590

$$$$

     RDKit          2D

 44 49  0  0  0  0  0  0  0  0999 V2000
   10.7824  -15.8378    0.0000 C   0  0  0  0  0  0  0  0  0  0  0  0
    9.4121  -15.2277    0.0000 C   0  0  0  0  0  0  0  0  0  0  0  0
    9.2553  -13.7359    0.0000 C   0  0  0  0  0  0  0  0  0  0  0  0
   10.4688  -12.8543    0.0000 O   0  0  0  0  0  0  0  0  0  0  0  0
    7.8850  -13.1258    0.0000 C   0  0  0  0  0  0  0  0  0  0  0  0
    7.7282  -11.6340    0.0000 C   0  0  0  0  0  0  0  0  0  0  0  0
    6.3579  -11.0239    0.0000 C   0  0  0  0  0  0  0  0  0  0  0  0
    6.2011   -9.5322    0.0000 C   0  0  0  0  0  0  0  0  0  0  0  0
    4.8308   -8.9221    0.0000 C   0  0  0  0  0  0  0  0  0  0  0  0
    4.6740   -7.4303    0.0000 C   0  0  0  0  0  0  0  0  0  0  0  0
    5.8875   -6.5486    0.0000 N   0  0  0  0  0  0  0  0  0  0  0  0
    7.2578   -7.1587    0.0000 C   0  0  0  0  0  0  0  0  0  0  0  0
    7.4146   -8.6505    0.0000 O   0  0  0  0  0  0  0  0  0  0  0  0
    8.4713   -6.2770    0.0000 C   0  0  0  0  0  0  0  0  0  0  0  0
    9.0814   -4.9067    0.0000 C   0  0  0  0  0  0  0  0  0  0  0  0
    9.9631   -6.1202    0.0000 C   0  0  0  0  0  0  0  0  0  0  0  0
   10.1199   -7.6120    0.0000 C   0  0  0  0  0  0  0  0  0  0  0  0
   11.4902   -8.2221    0.0000 C   0  0  0  0  0  0  0  0  0  0  0  0
   12.7038   -7.3404    0.0000 N   0  0  0  0  0  0  0  0  0  0  0  0
   14.0741   -7.9505    0.0000 C   0  0  0  0  0  0  0  0  0  0  0  0
   12.5470   -5.8487    0.0000 C   0  0  0  0  0  0  0  0  0  0  0  0
   11.1766   -5.2386    0.0000 C   0  0  0  0  0  0  0  0  0  0  0  0
    3.3037   -6.8202    0.0000 C   0  0  0  0  0  0  0  0  0  0  0  0
    2.0046   -7.5702    0.0000 N   0  0  0  0  0  0  0  0  0  0  0  0
    0.8899   -6.5665    0.0000 C   0  0  0  0  0  0  0  0  0  0  0  0
    1.5000   -5.1962    0.0000 C   0  0  0  0  0  0  0  0  0  0  0  0
    0.7500   -3.8971    0.0000 C   0  0  0  0  0  0  0  0  0  0  0  0
    1.5000   -2.5981    0.0000 C   0  0  0  0  0  0  0  0  0  0  0  0
    0.7500   -1.2990    0.0000 C   0  0  0  0  0  0  0  0  0  0  0  0
    1.5000    0.0000    0.0000 C   0  0  0  0  0  0  0  0  0  0  0  0
    0.7500    1.2990    0.0000 C   0  0  0  0  0  0  0  0  0  0  0  0
   -0.7500    1.2990    0.0000 C   0  0  0  0  0  0  0  0  0  0  0  0
   -1.5000    2.5981    0.0000 N   0  0  0  0  0  0  0  0  0  0  0  0
   -2.9918    2.7549    0.0000 C   0  0  0  0  0  0  0  0  0  0  0  0
   -3.3037    4.2221    0.0000 C   0  0  0  0  0  0  0  0  0  0  0  0
   -2.0046    4.9721    0.0000 C   0  0  0  0  0  0  0  0  0  0  0  0
   -0.8899    3.9684    0.0000 C   0  0  0  0  0  0  0  0  0  0  0  0
   -1.5000    0.0000    0.0000 N   0  0  0  0  0  0  0  0  0  0  0  0
   -0.7500   -1.2990    0.0000 C   0  0  0  0  0  0  0  0  0  0  0  0
   -1.5000   -2.5981    0.0000 C   0  0  0  0  0  0  0  0  0  0  0  0
   -0.7500   -3.8971    0.0000 C   0  0  0  0  0  0  0  0  0  0  0  0
   -1.5000   -5.1962    0.0000 O   0  0  0  0  0  0  0  0  0  0  0  0
   -3.0000   -5.1962    0.0000 C   0  0  0  0  0  0  0  0  0  0  0  0
    2.9918   -5.3529    0.0000 N   0  0  0  0  0  0  0  0  0  0  0  0
  1  2  1  0
  2  3  1  0
  3  4  2  0
  3  5  1  0
  5  6  1  0
  6  7  1  0
  7  8  1  0
  8  9  1  0
  9 10  1  0
 10 11  1  0
 11 12  1  0
 12 13  2  0
 12 14  1  0
 14 15  1  0
 15 16  1  0
 16 17  1  0
 17 18  1  0
 18 19  1  0
 19 20  1  0
 19 21  1  0
 21 22  1  0
 10 23  1  0
 23 24  2  0
 24 25  1  0
 25 26  2  0
 26 27  1  0
 27 28  2  0
 28 29  1  0
 29 30  2  0
 30 31  1  0
 31 32  2  0
 32 33  1  0
 33 34  1  0
 34 35  1  0
 35 36  1  0
 36 37  1  0
 32 38  1  0
 38 39  2  0
 39 40  1  0
 40 41  2  0
 41 42  1  0
 42 43  1  0
 26 44  1  0
 16 14  1  0
 44 23  1  0
 22 16  1  0
 41 27  1  0
 39 29  1  0
 37 33  1  0
M  END
>  <molecule_chembl_id>  (1263) 
CHEMBL4861271

>  <canonical_smiles>  (1263) 
CCC(=O)CCCCCC(NC(=O)C1CC12CCN(C)CC2)c1ncc(-c2cc3ccc(N4CCCC4)nc3cc2OC)[nH]1

>  <pchembl_value_mean>  (1263) 
8.7

>  <document_chembl_id>  (1263) 
CHEMBL4825740

$$$$

     RDKit          2D

 37 40  0  0  0  0  0  0  0  0999 V2000
   14.7990   -8.5442    0.0000 C   0  0  0  0  0  0  0  0  0  0  0  0
   13.2990   -8.5442    0.0000 C   0  0  0  0  0  0  0  0  0  0  0  0
   12.5490   -7.2452    0.0000 C   0  0  0  0  0  0  0  0  0  0  0  0
   13.2990   -5.9462    0.0000 O   0  0  0  0  0  0  0  0  0  0  0  0
   11.0490   -7.2452    0.0000 C   0  0  0  0  0  0  0  0  0  0  0  0
   10.2990   -5.9462    0.0000 C   0  0  0  0  0  0  0  0  0  0  0  0
    8.7990   -5.9462    0.0000 C   0  0  0  0  0  0  0  0  0  0  0  0
    8.0490   -4.6471    0.0000 C   0  0  0  0  0  0  0  0  0  0  0  0
    6.5490   -4.6471    0.0000 C   0  0  0  0  0  0  0  0  0  0  0  0
    5.7990   -3.3481    0.0000 C   0  0  0  0  0  0  0  0  0  0  0  0
    4.2990   -3.3481    0.0000 N   0  0  0  0  0  0  0  0  0  0  0  0
    3.5490   -2.0490    0.0000 C   0  0  0  0  0  0  0  0  0  0  0  0
    4.2990   -0.7500    0.0000 O   0  0  0  0  0  0  0  0  0  0  0  0
    2.0490   -2.0490    0.0000 C   0  0  0  0  0  0  0  0  0  0  0  0
    0.7500   -2.7990    0.0000 C   0  0  0  0  0  0  0  0  0  0  0  0
    0.7500   -1.2990    0.0000 C   0  0  0  0  0  0  0  0  0  0  0  0
    1.5000    0.0000    0.0000 C   0  0  0  0  0  0  0  0  0  0  0  0
    0.7500    1.2990    0.0000 C   0  0  0  0  0  0  0  0  0  0  0  0
   -0.7500    1.2990    0.0000 N   0  0  0  0  0  0  0  0  0  0  0  0
   -1.5000    2.5981    0.0000 C   0  0  0  0  0  0  0  0  0  0  0  0
   -0.7500    3.8971    0.0000 C   0  0  0  0  0  0  0  0  0  0  0  0
   -1.5000    0.0000    0.0000 C   0  0  0  0  0  0  0  0  0  0  0  0
   -0.7500   -1.2990    0.0000 C   0  0  0  0  0  0  0  0  0  0  0  0
    6.5490   -2.0490    0.0000 C   0  0  0  0  0  0  0  0  0  0  0  0
    5.9389   -0.6787    0.0000 N   0  0  0  0  0  0  0  0  0  0  0  0
    7.0537    0.3250    0.0000 C   0  0  0  0  0  0  0  0  0  0  0  0
    8.3527   -0.4250    0.0000 C   0  0  0  0  0  0  0  0  0  0  0  0
    9.7230    0.1851    0.0000 C   0  0  0  0  0  0  0  0  0  0  0  0
   10.9365   -0.6966    0.0000 C   0  0  0  0  0  0  0  0  0  0  0  0
   12.3069   -0.0865    0.0000 C   0  0  0  0  0  0  0  0  0  0  0  0
   13.5204   -0.9682    0.0000 Cl  0  0  0  0  0  0  0  0  0  0  0  0
   12.4636    1.4053    0.0000 C   0  0  0  0  0  0  0  0  0  0  0  0
   11.2501    2.2870    0.0000 C   0  0  0  0  0  0  0  0  0  0  0  0
    9.8798    1.6769    0.0000 C   0  0  0  0  0  0  0  0  0  0  0  0
    8.6663    2.5585    0.0000 O   0  0  0  0  0  0  0  0  0  0  0  0
    8.8231    4.0503    0.0000 C   0  0  0  0  0  0  0  0  0  0  0  0
    8.0408   -1.8922    0.0000 N   0  0  0  0  0  0  0  0  0  0  0  0
  1  2  1  0
  2  3  1  0
  3  4  2  0
  3  5  1  0
  5  6  1  0
  6  7  1  0
  7  8  1  0
  8  9  1  0
  9 10  1  0
 10 11  1  0
 11 12  1  0
 12 13  2  0
 12 14  1  0
 14 15  1  0
 15 16  1  0
 16 17  1  0
 17 18  1  0
 18 19  1  0
 19 20  1  0
 20 21  1  0
 19 22  1  0
 22 23  1  0
 10 24  1  0
 24 25  2  0
 25 26  1  0
 26 27  2  0
 27 28  1  0
 28 29  2  0
 29 30  1  0
 30 31  1  0
 30 32  2  0
 32 33  1  0
 33 34  2  0
 34 35  1  0
 35 36  1  0
 27 37  1  0
 16 14  1  0
 37 24  1  0
 23 16  1  0
 34 28  1  0
M  END
>  <molecule_chembl_id>  (1264) 
CHEMBL4753452

>  <canonical_smiles>  (1264) 
CCC(=O)CCCCCC(NC(=O)C1CC12CCN(CC)CC2)c1ncc(-c2cc(Cl)ccc2OC)[nH]1

>  <pchembl_value_mean>  (1264) 
8.74

>  <document_chembl_id>  (1264) 
CHEMBL4680369

$$$$

     RDKit          2D

 36 39  0  0  0  0  0  0  0  0999 V2000
    1.1892    2.4856    0.0000 C   0  0  0  0  0  0  0  0  0  0  0  0
    0.3943    1.2135    0.0000 C   0  0  0  0  0  0  0  0  0  0  0  0
    1.2760    0.0000    0.0000 C   0  0  0  0  0  0  0  0  0  0  0  0
    0.3943   -1.2135    0.0000 S   0  0  0  0  0  0  0  0  0  0  0  0
   -1.0323   -0.7500    0.0000 C   0  0  0  0  0  0  0  0  0  0  0  0
   -1.0323    0.7500    0.0000 N   0  0  0  0  0  0  0  0  0  0  0  0
   -2.7425   -1.6861    0.0000 C   0  0  0  0  0  0  0  0  0  0  0  0
   -3.5262   -2.9650    0.0000 C   0  0  0  0  0  0  0  0  0  0  0  0
   -4.9848   -2.6149    0.0000 S   0  0  0  0  0  0  0  0  0  0  0  0
   -5.6035   -0.9992    0.0000 C   0  0  0  0  0  0  0  0  0  0  0  0
   -4.2413   -1.6272    0.0000 N   0  0  0  0  0  0  0  0  0  0  0  0
   -6.6217    0.1023    0.0000 C   0  0  0  0  0  0  0  0  0  0  0  0
   -7.1409    1.5096    0.0000 N   0  0  0  0  0  0  0  0  0  0  0  0
   -7.0820    3.0084    0.0000 C   0  0  0  0  0  0  0  0  0  0  0  0
   -8.5406    3.3586    0.0000 O   0  0  0  0  0  0  0  0  0  0  0  0
   -6.4540    4.3706    0.0000 C   0  0  0  0  0  0  0  0  0  0  0  0
   -5.3525    5.3888    0.0000 C   0  0  0  0  0  0  0  0  0  0  0  0
   -6.1363    6.6678    0.0000 C   0  0  0  0  0  0  0  0  0  0  0  0
   -5.4205    7.9860    0.0000 C   0  0  0  0  0  0  0  0  0  0  0  0
   -6.2043    9.2650    0.0000 C   0  0  0  0  0  0  0  0  0  0  0  0
   -5.4886   10.5832    0.0000 C   0  0  0  0  0  0  0  0  0  0  0  0
   -6.2723   11.8622    0.0000 S   0  0  0  0  0  0  0  0  0  0  0  0
   -3.9452    5.9080    0.0000 O   0  0  0  0  0  0  0  0  0  0  0  0
   -2.4464    5.8491    0.0000 C   0  0  0  0  0  0  0  0  0  0  0  0
   -2.0962    7.3077    0.0000 O   0  0  0  0  0  0  0  0  0  0  0  0
   -1.0842    5.2211    0.0000 C   0  0  0  0  0  0  0  0  0  0  0  0
   -0.2025    6.4347    0.0000 C   0  0  0  0  0  0  0  0  0  0  0  0
    1.2893    6.2779    0.0000 C   0  0  0  0  0  0  0  0  0  0  0  0
    1.8994    4.9076    0.0000 C   0  0  0  0  0  0  0  0  0  0  0  0
    3.3912    4.7508    0.0000 C   0  0  0  0  0  0  0  0  0  0  0  0
    4.2728    5.9643    0.0000 C   0  0  0  0  0  0  0  0  0  0  0  0
    3.6627    7.3346    0.0000 C   0  0  0  0  0  0  0  0  0  0  0  0
    2.1709    7.4914    0.0000 C   0  0  0  0  0  0  0  0  0  0  0  0
   -0.0660    4.1197    0.0000 N   0  0  0  0  0  0  0  0  0  0  0  0
    0.4532    2.7124    0.0000 C   0  0  0  0  0  0  0  0  0  0  0  0
    1.9347    2.9470    0.0000 O   0  0  0  0  0  0  0  0  0  0  0  0
  1  2  1  0
  2  3  1  0
  3  4  1  0
  4  5  1  0
  5  6  2  0
  5  7  1  0
  7  8  2  0
  8  9  1  0
  9 10  1  0
 10 11  2  0
 10 12  1  0
 12 13  1  0
 13 14  1  0
 14 15  2  0
 14 16  1  0
 16 17  1  0
 17 18  1  0
 18 19  2  3
 19 20  1  0
 20 21  1  0
 21 22  1  0
 17 23  1  0
 23 24  1  0
 24 25  2  0
 24 26  1  0
 26 27  1  0
 27 28  1  0
 28 29  2  0
 29 30  1  0
 30 31  2  0
 31 32  1  0
 32 33  2  0
 26 34  1  0
 34 35  1  0
 35 36  2  0
  6  2  1  0
 11  7  1  0
 33 28  1  0
 35  2  1  0
M  END
>  <molecule_chembl_id>  (1265) 
CHEMBL3317810

>  <canonical_smiles>  (1265) 
CC12CSC(=N1)c1csc(n1)CNC(=O)CC(C=CCCS)OC(=O)C(Cc1ccccc1)NC2=O

>  <pchembl_value_mean>  (1265) 
8.77

>  <document_chembl_id>  (1265) 
CHEMBL3352389

$$$$

     RDKit          2D

 41 45  0  0  0  0  0  0  0  0999 V2000
   14.7990   -8.5442    0.0000 C   0  0  0  0  0  0  0  0  0  0  0  0
   13.2990   -8.5442    0.0000 C   0  0  0  0  0  0  0  0  0  0  0  0
   12.5490   -7.2452    0.0000 C   0  0  0  0  0  0  0  0  0  0  0  0
   13.2990   -5.9462    0.0000 O   0  0  0  0  0  0  0  0  0  0  0  0
   11.0490   -7.2452    0.0000 C   0  0  0  0  0  0  0  0  0  0  0  0
   10.2990   -5.9462    0.0000 C   0  0  0  0  0  0  0  0  0  0  0  0
    8.7990   -5.9462    0.0000 C   0  0  0  0  0  0  0  0  0  0  0  0
    8.0490   -4.6471    0.0000 C   0  0  0  0  0  0  0  0  0  0  0  0
    6.5490   -4.6471    0.0000 C   0  0  0  0  0  0  0  0  0  0  0  0
    5.7990   -3.3481    0.0000 C   0  0  0  0  0  0  0  0  0  0  0  0
    4.2990   -3.3481    0.0000 N   0  0  0  0  0  0  0  0  0  0  0  0
    3.5490   -2.0490    0.0000 C   0  0  0  0  0  0  0  0  0  0  0  0
    4.2990   -0.7500    0.0000 O   0  0  0  0  0  0  0  0  0  0  0  0
    2.0490   -2.0490    0.0000 C   0  0  0  0  0  0  0  0  0  0  0  0
    0.7500   -2.7990    0.0000 C   0  0  0  0  0  0  0  0  0  0  0  0
    0.7500   -1.2990    0.0000 C   0  0  0  0  0  0  0  0  0  0  0  0
    1.5000    0.0000    0.0000 C   0  0  0  0  0  0  0  0  0  0  0  0
    0.7500    1.2990    0.0000 C   0  0  0  0  0  0  0  0  0  0  0  0
   -0.7500    1.2990    0.0000 N   0  0  0  0  0  0  0  0  0  0  0  0
   -1.5000    2.5981    0.0000 C   0  0  0  0  0  0  0  0  0  0  0  0
   -1.5000    0.0000    0.0000 C   0  0  0  0  0  0  0  0  0  0  0  0
   -0.7500   -1.2990    0.0000 C   0  0  0  0  0  0  0  0  0  0  0  0
    6.5490   -2.0490    0.0000 C   0  0  0  0  0  0  0  0  0  0  0  0
    5.9389   -0.6787    0.0000 N   0  0  0  0  0  0  0  0  0  0  0  0
    7.0537    0.3250    0.0000 C   0  0  0  0  0  0  0  0  0  0  0  0
    6.8969    1.8168    0.0000 C   0  0  0  0  0  0  0  0  0  0  0  0
    8.1104    2.6984    0.0000 C   0  0  0  0  0  0  0  0  0  0  0  0
    7.9536    4.1902    0.0000 C   0  0  0  0  0  0  0  0  0  0  0  0
    6.5833    4.8003    0.0000 C   0  0  0  0  0  0  0  0  0  0  0  0
    6.4265    6.2921    0.0000 C   0  0  0  0  0  0  0  0  0  0  0  0
    7.6400    7.1738    0.0000 C   0  0  0  0  0  0  0  0  0  0  0  0
    7.4832    8.6656    0.0000 C   0  0  0  0  0  0  0  0  0  0  0  0
    6.1129    9.2757    0.0000 C   0  0  0  0  0  0  0  0  0  0  0  0
    4.8994    8.3940    0.0000 N   0  0  0  0  0  0  0  0  0  0  0  0
    5.0562    6.9022    0.0000 C   0  0  0  0  0  0  0  0  0  0  0  0
    5.3697    3.9186    0.0000 C   0  0  0  0  0  0  0  0  0  0  0  0
    5.5265    2.4269    0.0000 C   0  0  0  0  0  0  0  0  0  0  0  0
    8.3527   -0.4250    0.0000 N   0  0  0  0  0  0  0  0  0  0  0  0
    8.0408   -1.8922    0.0000 C   0  0  0  0  0  0  0  0  0  0  0  0
    9.0445   -3.0070    0.0000 C   0  0  0  0  0  0  0  0  0  0  0  0
   10.0482   -4.1217    0.0000 N   0  0  0  0  0  0  0  0  0  0  0  0
  1  2  1  0
  2  3  1  0
  3  4  2  0
  3  5  1  0
  5  6  1  0
  6  7  1  0
  7  8  1  0
  8  9  1  0
  9 10  1  0
 10 11  1  0
 11 12  1  0
 12 13  2  0
 12 14  1  0
 14 15  1  0
 15 16  1  0
 16 17  1  0
 17 18  1  0
 18 19  1  0
 19 20  1  0
 19 21  1  0
 21 22  1  0
 10 23  1  0
 23 24  1  0
 24 25  1  0
 25 26  1  0
 26 27  2  0
 27 28  1  0
 28 29  2  0
 29 30  1  0
 30 31  2  0
 31 32  1  0
 32 33  2  0
 33 34  1  0
 34 35  2  0
 29 36  1  0
 36 37  2  0
 25 38  2  0
 38 39  1  0
 39 40  1  0
 40 41  3  0
 16 14  1  0
 39 23  2  0
 22 16  1  0
 37 26  1  0
 35 30  1  0
M  END
>  <molecule_chembl_id>  (1266) 
CHEMBL4746782

>  <canonical_smiles>  (1266) 
CCC(=O)CCCCCC(NC(=O)C1CC12CCN(C)CC2)c1[nH]c(-c2ccc(-c3cccnc3)cc2)nc1C#N

>  <pchembl_value_mean>  (1266) 
8.77

>  <document_chembl_id>  (1266) 
CHEMBL4665726

$$$$

     RDKit          2D

 32 35  0  0  0  0  0  0  0  0999 V2000
   -6.2940    7.2357    0.0000 N   0  0  0  0  0  0  0  0  0  0  0  0
   -5.1793    6.2320    0.0000 C   0  0  0  0  0  0  0  0  0  0  0  0
   -3.7527    6.6955    0.0000 C   0  0  0  0  0  0  0  0  0  0  0  0
   -2.6380    5.6918    0.0000 C   0  0  0  0  0  0  0  0  0  0  0  0
   -2.9499    4.2246    0.0000 C   0  0  0  0  0  0  0  0  0  0  0  0
   -1.8351    3.2209    0.0000 C   0  0  0  0  0  0  0  0  0  0  0  0
   -0.4086    3.6844    0.0000 N   0  0  0  0  0  0  0  0  0  0  0  0
    0.7062    2.6807    0.0000 C   0  0  0  0  0  0  0  0  0  0  0  0
    2.1328    3.1443    0.0000 N   0  0  0  0  0  0  0  0  0  0  0  0
    3.2475    2.1406    0.0000 C   0  0  0  0  0  0  0  0  0  0  0  0
    4.6741    2.6041    0.0000 C   0  0  0  0  0  0  0  0  0  0  0  0
    4.9859    4.0713    0.0000 O   0  0  0  0  0  0  0  0  0  0  0  0
    3.8712    5.0750    0.0000 C   0  0  0  0  0  0  0  0  0  0  0  0
    2.4446    4.6115    0.0000 C   0  0  0  0  0  0  0  0  0  0  0  0
    0.3943    1.2135    0.0000 C   0  0  0  0  0  0  0  0  0  0  0  0
    1.2760    0.0000    0.0000 C   0  0  0  0  0  0  0  0  0  0  0  0
    0.3943   -1.2135    0.0000 N   0  0  0  0  0  0  0  0  0  0  0  0
   -1.0323   -0.7500    0.0000 N   0  0  0  0  0  0  0  0  0  0  0  0
   -2.2458   -1.6317    0.0000 C   0  0  0  0  0  0  0  0  0  0  0  0
   -2.0890   -3.1235    0.0000 C   0  0  0  0  0  0  0  0  0  0  0  0
   -3.3025   -4.0051    0.0000 C   0  0  0  0  0  0  0  0  0  0  0  0
   -3.1458   -5.4969    0.0000 C   0  0  0  0  0  0  0  0  0  0  0  0
   -4.3593   -6.3786    0.0000 C   0  0  0  0  0  0  0  0  0  0  0  0
   -4.2025   -7.8704    0.0000 C   0  0  0  0  0  0  0  0  0  0  0  0
   -5.4160   -8.7521    0.0000 C   0  0  0  0  0  0  0  0  0  0  0  0
   -6.7863   -8.1420    0.0000 O   0  0  0  0  0  0  0  0  0  0  0  0
   -5.2592  -10.2438    0.0000 N   0  0  0  0  0  0  0  0  0  0  0  0
   -6.4727  -11.1255    0.0000 O   0  0  0  0  0  0  0  0  0  0  0  0
   -1.0323    0.7500    0.0000 C   0  0  0  0  0  0  0  0  0  0  0  0
   -2.1470    1.7537    0.0000 N   0  0  0  0  0  0  0  0  0  0  0  0
   -4.3764    3.7611    0.0000 C   0  0  0  0  0  0  0  0  0  0  0  0
   -5.4912    4.7648    0.0000 C   0  0  0  0  0  0  0  0  0  0  0  0
  1  2  1  0
  2  3  2  0
  3  4  1  0
  4  5  2  0
  5  6  1  0
  6  7  2  0
  7  8  1  0
  8  9  1  0
  9 10  1  0
 10 11  1  0
 11 12  1  0
 12 13  1  0
 13 14  1  0
  8 15  2  0
 15 16  1  0
 16 17  2  0
 17 18  1  0
 18 19  1  0
 19 20  1  0
 20 21  1  0
 21 22  1  0
 22 23  1  0
 23 24  1  0
 24 25  1  0
 25 26  2  0
 25 27  1  0
 27 28  1  0
 18 29  1  0
 29 30  2  0
  5 31  1  0
 31 32  2  0
 32  2  1  0
 30  6  1  0
 14  9  1  0
 29 15  1  0
M  END
>  <molecule_chembl_id>  (1267) 
CHEMBL4552057

>  <canonical_smiles>  (1267) 
Nc1ccc(-c2nc(N3CCOCC3)c3cnn(CCCCCCC(=O)NO)c3n2)cc1

>  <pchembl_value_mean>  (1267) 
8.8

>  <document_chembl_id>  (1267) 
CHEMBL4411315

$$$$

     RDKit          2D

 39 43  0  0  0  0  0  0  0  0999 V2000
   10.7824  -13.2397    0.0000 C   0  0  0  0  0  0  0  0  0  0  0  0
    9.4121  -12.6296    0.0000 C   0  0  0  0  0  0  0  0  0  0  0  0
    9.2553  -11.1379    0.0000 C   0  0  0  0  0  0  0  0  0  0  0  0
   10.4688  -10.2562    0.0000 O   0  0  0  0  0  0  0  0  0  0  0  0
    7.8850  -10.5278    0.0000 C   0  0  0  0  0  0  0  0  0  0  0  0
    7.7282   -9.0360    0.0000 C   0  0  0  0  0  0  0  0  0  0  0  0
    6.3579   -8.4259    0.0000 C   0  0  0  0  0  0  0  0  0  0  0  0
    6.2011   -6.9341    0.0000 C   0  0  0  0  0  0  0  0  0  0  0  0
    4.8308   -6.3240    0.0000 C   0  0  0  0  0  0  0  0  0  0  0  0
    4.6740   -4.8322    0.0000 C   0  0  0  0  0  0  0  0  0  0  0  0
    5.8875   -3.9505    0.0000 N   0  0  0  0  0  0  0  0  0  0  0  0
    7.2578   -4.5606    0.0000 C   0  0  0  0  0  0  0  0  0  0  0  0
    7.4146   -6.0524    0.0000 O   0  0  0  0  0  0  0  0  0  0  0  0
    8.4713   -3.6789    0.0000 C   0  0  0  0  0  0  0  0  0  0  0  0
    9.0814   -2.3086    0.0000 C   0  0  0  0  0  0  0  0  0  0  0  0
    9.9631   -3.5222    0.0000 C   0  0  0  0  0  0  0  0  0  0  0  0
   10.1199   -5.0139    0.0000 C   0  0  0  0  0  0  0  0  0  0  0  0
   11.4902   -5.6240    0.0000 C   0  0  0  0  0  0  0  0  0  0  0  0
   12.7038   -4.7424    0.0000 N   0  0  0  0  0  0  0  0  0  0  0  0
   14.0741   -5.3525    0.0000 C   0  0  0  0  0  0  0  0  0  0  0  0
   12.5470   -3.2506    0.0000 C   0  0  0  0  0  0  0  0  0  0  0  0
   11.1766   -2.6405    0.0000 C   0  0  0  0  0  0  0  0  0  0  0  0
    3.3037   -4.2221    0.0000 C   0  0  0  0  0  0  0  0  0  0  0  0
    2.0046   -4.9721    0.0000 N   0  0  0  0  0  0  0  0  0  0  0  0
    0.8899   -3.9684    0.0000 C   0  0  0  0  0  0  0  0  0  0  0  0
    1.5000   -2.5981    0.0000 C   0  0  0  0  0  0  0  0  0  0  0  0
    0.7500   -1.2990    0.0000 C   0  0  0  0  0  0  0  0  0  0  0  0
    1.5000    0.0000    0.0000 C   0  0  0  0  0  0  0  0  0  0  0  0
    0.7500    1.2990    0.0000 C   0  0  0  0  0  0  0  0  0  0  0  0
   -0.7500    1.2990    0.0000 C   0  0  0  0  0  0  0  0  0  0  0  0
   -1.5000    2.5981    0.0000 C   0  0  0  0  0  0  0  0  0  0  0  0
   -0.7500    3.8971    0.0000 O   0  0  0  0  0  0  0  0  0  0  0  0
   -3.0000    2.5981    0.0000 N   0  0  0  0  0  0  0  0  0  0  0  0
   -3.7500    3.8971    0.0000 C   0  0  0  0  0  0  0  0  0  0  0  0
   -3.7500    1.2990    0.0000 C   0  0  0  0  0  0  0  0  0  0  0  0
   -3.0000    0.0000    0.0000 C   0  0  0  0  0  0  0  0  0  0  0  0
   -1.5000    0.0000    0.0000 C   0  0  0  0  0  0  0  0  0  0  0  0
   -0.7500   -1.2990    0.0000 C   0  0  0  0  0  0  0  0  0  0  0  0
    2.9918   -2.7549    0.0000 N   0  0  0  0  0  0  0  0  0  0  0  0
  1  2  1  0
  2  3  1  0
  3  4  2  0
  3  5  1  0
  5  6  1  0
  6  7  1  0
  7  8  1  0
  8  9  1  0
  9 10  1  0
 10 11  1  0
 11 12  1  0
 12 13  2  0
 12 14  1  0
 14 15  1  0
 15 16  1  0
 16 17  1  0
 17 18  1  0
 18 19  1  0
 19 20  1  0
 19 21  1  0
 21 22  1  0
 10 23  1  0
 23 24  2  0
 24 25  1  0
 25 26  2  0
 26 27  1  0
 27 28  2  0
 28 29  1  0
 29 30  2  0
 30 31  1  0
 31 32  2  0
 31 33  1  0
 33 34  1  0
 33 35  1  0
 35 36  2  0
 36 37  1  0
 37 38  2  0
 26 39  1  0
 16 14  1  0
 39 23  1  0
 22 16  1  0
 38 27  1  0
 37 30  1  0
M  END
>  <molecule_chembl_id>  (1268) 
CHEMBL4856631

>  <canonical_smiles>  (1268) 
CCC(=O)CCCCCC(NC(=O)C1CC12CCN(C)CC2)c1ncc(-c2ccc3c(=O)n(C)ccc3c2)[nH]1

>  <pchembl_value_mean>  (1268) 
8.8

>  <document_chembl_id>  (1268) 
CHEMBL4811291

$$$$

     RDKit          2D

 41 45  0  0  0  0  0  0  0  0999 V2000
   10.7824  -15.8378    0.0000 C   0  0  0  0  0  0  0  0  0  0  0  0
    9.4121  -15.2277    0.0000 C   0  0  0  0  0  0  0  0  0  0  0  0
    9.2553  -13.7359    0.0000 C   0  0  0  0  0  0  0  0  0  0  0  0
   10.4688  -12.8543    0.0000 O   0  0  0  0  0  0  0  0  0  0  0  0
    7.8850  -13.1258    0.0000 C   0  0  0  0  0  0  0  0  0  0  0  0
    7.7282  -11.6340    0.0000 C   0  0  0  0  0  0  0  0  0  0  0  0
    6.3579  -11.0239    0.0000 C   0  0  0  0  0  0  0  0  0  0  0  0
    6.2011   -9.5322    0.0000 C   0  0  0  0  0  0  0  0  0  0  0  0
    4.8308   -8.9221    0.0000 C   0  0  0  0  0  0  0  0  0  0  0  0
    4.6740   -7.4303    0.0000 C   0  0  0  0  0  0  0  0  0  0  0  0
    5.8875   -6.5486    0.0000 N   0  0  0  0  0  0  0  0  0  0  0  0
    7.2578   -7.1587    0.0000 C   0  0  0  0  0  0  0  0  0  0  0  0
    7.4146   -8.6505    0.0000 O   0  0  0  0  0  0  0  0  0  0  0  0
    8.4713   -6.2770    0.0000 C   0  0  0  0  0  0  0  0  0  0  0  0
    9.0814   -4.9067    0.0000 C   0  0  0  0  0  0  0  0  0  0  0  0
    9.9631   -6.1202    0.0000 C   0  0  0  0  0  0  0  0  0  0  0  0
   10.1199   -7.6120    0.0000 C   0  0  0  0  0  0  0  0  0  0  0  0
   11.4902   -8.2221    0.0000 C   0  0  0  0  0  0  0  0  0  0  0  0
   12.7038   -7.3404    0.0000 N   0  0  0  0  0  0  0  0  0  0  0  0
   14.0741   -7.9505    0.0000 C   0  0  0  0  0  0  0  0  0  0  0  0
   14.2309   -9.4423    0.0000 C   0  0  0  0  0  0  0  0  0  0  0  0
   15.2876   -7.0689    0.0000 C   0  0  0  0  0  0  0  0  0  0  0  0
   12.5470   -5.8487    0.0000 C   0  0  0  0  0  0  0  0  0  0  0  0
   11.1766   -5.2386    0.0000 C   0  0  0  0  0  0  0  0  0  0  0  0
    3.3037   -6.8202    0.0000 C   0  0  0  0  0  0  0  0  0  0  0  0
    2.0046   -7.5702    0.0000 N   0  0  0  0  0  0  0  0  0  0  0  0
    0.8899   -6.5665    0.0000 C   0  0  0  0  0  0  0  0  0  0  0  0
    1.5000   -5.1962    0.0000 C   0  0  0  0  0  0  0  0  0  0  0  0
    0.7500   -3.8971    0.0000 C   0  0  0  0  0  0  0  0  0  0  0  0
    1.5000   -2.5981    0.0000 C   0  0  0  0  0  0  0  0  0  0  0  0
    0.7500   -1.2990    0.0000 C   0  0  0  0  0  0  0  0  0  0  0  0
    1.5000    0.0000    0.0000 C   0  0  0  0  0  0  0  0  0  0  0  0
    0.7500    1.2990    0.0000 C   0  0  0  0  0  0  0  0  0  0  0  0
   -0.7500    1.2990    0.0000 C   0  0  0  0  0  0  0  0  0  0  0  0
   -1.5000    0.0000    0.0000 C   0  0  0  0  0  0  0  0  0  0  0  0
   -0.7500   -1.2990    0.0000 C   0  0  0  0  0  0  0  0  0  0  0  0
   -1.5000   -2.5981    0.0000 N   0  0  0  0  0  0  0  0  0  0  0  0
   -0.7500   -3.8971    0.0000 C   0  0  0  0  0  0  0  0  0  0  0  0
   -1.5000   -5.1962    0.0000 O   0  0  0  0  0  0  0  0  0  0  0  0
   -3.0000   -5.1962    0.0000 C   0  0  0  0  0  0  0  0  0  0  0  0
    2.9918   -5.3529    0.0000 N   0  0  0  0  0  0  0  0  0  0  0  0
  1  2  1  0
  2  3  1  0
  3  4  2  0
  3  5  1  0
  5  6  1  0
  6  7  1  0
  7  8  1  0
  8  9  1  0
  9 10  1  0
 10 11  1  0
 11 12  1  0
 12 13  2  0
 12 14  1  0
 14 15  1  0
 15 16  1  0
 16 17  1  0
 17 18  1  0
 18 19  1  0
 19 20  1  0
 20 21  1  0
 20 22  1  0
 19 23  1  0
 23 24  1  0
 10 25  1  0
 25 26  2  0
 26 27  1  0
 27 28  2  0
 28 29  1  0
 29 30  2  0
 30 31  1  0
 31 32  2  0
 32 33  1  0
 33 34  2  0
 34 35  1  0
 35 36  2  0
 36 37  1  0
 37 38  2  0
 38 39  1  0
 39 40  1  0
 28 41  1  0
 16 14  1  0
 41 25  1  0
 24 16  1  0
 38 29  1  0
 36 31  1  0
M  END
>  <molecule_chembl_id>  (1269) 
CHEMBL4644038

>  <canonical_smiles>  (1269) 
CCC(=O)CCCCCC(NC(=O)C1CC12CCN(C(C)C)CC2)c1ncc(-c2cc3ccccc3nc2OC)[nH]1

>  <pchembl_value_mean>  (1269) 
8.85

>  <document_chembl_id>  (1269) 
CHEMBL4622849

$$$$

     RDKit          2D

 40 42  0  0  0  0  0  0  0  0999 V2000
    8.4343    9.1401    0.0000 C   0  0  0  0  0  0  0  0  0  0  0  0
    7.2208   10.0218    0.0000 C   0  0  0  0  0  0  0  0  0  0  0  0
    6.0072   10.9034    0.0000 C   0  0  0  0  0  0  0  0  0  0  0  0
    8.1024   11.2353    0.0000 C   0  0  0  0  0  0  0  0  0  0  0  0
    6.3391    8.8082    0.0000 O   0  0  0  0  0  0  0  0  0  0  0  0
    4.8473    8.9650    0.0000 C   0  0  0  0  0  0  0  0  0  0  0  0
    4.2372   10.3353    0.0000 O   0  0  0  0  0  0  0  0  0  0  0  0
    3.9656    7.7515    0.0000 N   0  0  0  0  0  0  0  0  0  0  0  0
    2.4738    7.9083    0.0000 C   0  0  0  0  0  0  0  0  0  0  0  0
    1.5922    6.6948    0.0000 C   0  0  0  0  0  0  0  0  0  0  0  0
    0.1004    6.8516    0.0000 C   0  0  0  0  0  0  0  0  0  0  0  0
   -0.7813    5.6380    0.0000 C   0  0  0  0  0  0  0  0  0  0  0  0
    0.2369    4.5365    0.0000 N   0  0  0  0  0  0  0  0  0  0  0  0
    0.7561    3.1293    0.0000 C   0  0  0  0  0  0  0  0  0  0  0  0
    2.2376    3.3639    0.0000 O   0  0  0  0  0  0  0  0  0  0  0  0
    0.3943    1.2135    0.0000 C   0  0  0  0  0  0  0  0  0  0  0  0
    0.4790    2.4256    0.0000 C   0  0  0  0  0  0  0  0  0  0  0  0
    1.2760    0.0000    0.0000 C   0  0  0  0  0  0  0  0  0  0  0  0
    0.3943   -1.2135    0.0000 S   0  0  0  0  0  0  0  0  0  0  0  0
   -1.0323   -0.7500    0.0000 C   0  0  0  0  0  0  0  0  0  0  0  0
   -1.0323    0.7500    0.0000 N   0  0  0  0  0  0  0  0  0  0  0  0
   -2.4396   -1.2692    0.0000 C   0  0  0  0  0  0  0  0  0  0  0  0
   -3.2233   -2.5481    0.0000 C   0  0  0  0  0  0  0  0  0  0  0  0
   -4.6819   -2.1980    0.0000 S   0  0  0  0  0  0  0  0  0  0  0  0
   -5.3006   -0.5823    0.0000 C   0  0  0  0  0  0  0  0  0  0  0  0
   -3.9384   -1.2103    0.0000 N   0  0  0  0  0  0  0  0  0  0  0  0
   -6.3188    0.5192    0.0000 C   0  0  0  0  0  0  0  0  0  0  0  0
   -6.8380    1.9265    0.0000 N   0  0  0  0  0  0  0  0  0  0  0  0
   -6.7791    3.4253    0.0000 C   0  0  0  0  0  0  0  0  0  0  0  0
   -8.2377    3.7755    0.0000 O   0  0  0  0  0  0  0  0  0  0  0  0
   -6.1511    4.7875    0.0000 C   0  0  0  0  0  0  0  0  0  0  0  0
   -5.0496    5.8057    0.0000 C   0  0  0  0  0  0  0  0  0  0  0  0
   -5.8334    7.0847    0.0000 C   0  0  0  0  0  0  0  0  0  0  0  0
   -5.1177    8.4029    0.0000 C   0  0  0  0  0  0  0  0  0  0  0  0
   -5.9014    9.6819    0.0000 C   0  0  0  0  0  0  0  0  0  0  0  0
   -5.1857   11.0001    0.0000 C   0  0  0  0  0  0  0  0  0  0  0  0
   -5.9694   12.2791    0.0000 S   0  0  0  0  0  0  0  0  0  0  0  0
   -3.6424    6.3249    0.0000 O   0  0  0  0  0  0  0  0  0  0  0  0
   -2.1435    6.2660    0.0000 C   0  0  0  0  0  0  0  0  0  0  0  0
   -1.7933    7.7246    0.0000 O   0  0  0  0  0  0  0  0  0  0  0  0
  1  2  1  0
  2  3  1  0
  2  4  1  0
  2  5  1  0
  5  6  1  0
  6  7  2  0
  6  8  1  0
  8  9  1  0
  9 10  1  0
 10 11  1  0
 11 12  1  0
 12 13  1  0
 13 14  1  0
 14 15  2  0
 14 16  1  0
 16 17  1  0
 16 18  1  0
 18 19  1  0
 19 20  1  0
 20 21  2  0
 20 22  1  0
 22 23  2  0
 23 24  1  0
 24 25  1  0
 25 26  2  0
 25 27  1  0
 27 28  1  0
 28 29  1  0
 29 30  2  0
 29 31  1  0
 31 32  1  0
 32 33  1  0
 33 34  2  3
 34 35  1  0
 35 36  1  0
 36 37  1  0
 32 38  1  0
 38 39  1  0
 39 40  2  0
 39 12  1  0
 21 16  1  0
 26 22  1  0
M  END
>  <molecule_chembl_id>  (1270) 
CHEMBL3317817

>  <canonical_smiles>  (1270) 
CC(C)(C)OC(=O)NCCCC1NC(=O)C2(C)CSC(=N2)c2csc(n2)CNC(=O)CC(C=CCCS)OC1=O

>  <pchembl_value_mean>  (1270) 
8.85

>  <document_chembl_id>  (1270) 
CHEMBL3352389

$$$$

     RDKit          2D

 35 38  0  0  0  0  0  0  0  0999 V2000
    1.1892    2.4856    0.0000 C   0  0  0  0  0  0  0  0  0  0  0  0
    0.3943    1.2135    0.0000 C   0  0  0  0  0  0  0  0  0  0  0  0
    1.2760    0.0000    0.0000 C   0  0  0  0  0  0  0  0  0  0  0  0
    0.3943   -1.2135    0.0000 S   0  0  0  0  0  0  0  0  0  0  0  0
   -1.0323   -0.7500    0.0000 C   0  0  0  0  0  0  0  0  0  0  0  0
   -1.0323    0.7500    0.0000 N   0  0  0  0  0  0  0  0  0  0  0  0
   -2.7425   -1.6861    0.0000 C   0  0  0  0  0  0  0  0  0  0  0  0
   -3.5262   -2.9650    0.0000 C   0  0  0  0  0  0  0  0  0  0  0  0
   -4.9848   -2.6149    0.0000 S   0  0  0  0  0  0  0  0  0  0  0  0
   -5.6035   -0.9992    0.0000 C   0  0  0  0  0  0  0  0  0  0  0  0
   -4.2413   -1.6272    0.0000 N   0  0  0  0  0  0  0  0  0  0  0  0
   -6.6217    0.1023    0.0000 C   0  0  0  0  0  0  0  0  0  0  0  0
   -7.1409    1.5096    0.0000 N   0  0  0  0  0  0  0  0  0  0  0  0
   -7.0820    3.0084    0.0000 C   0  0  0  0  0  0  0  0  0  0  0  0
   -8.5406    3.3586    0.0000 O   0  0  0  0  0  0  0  0  0  0  0  0
   -6.4540    4.3706    0.0000 C   0  0  0  0  0  0  0  0  0  0  0  0
   -5.3525    5.3888    0.0000 C   0  0  0  0  0  0  0  0  0  0  0  0
   -6.1363    6.6678    0.0000 C   0  0  0  0  0  0  0  0  0  0  0  0
   -5.4205    7.9860    0.0000 C   0  0  0  0  0  0  0  0  0  0  0  0
   -6.2043    9.2650    0.0000 C   0  0  0  0  0  0  0  0  0  0  0  0
   -5.4886   10.5832    0.0000 C   0  0  0  0  0  0  0  0  0  0  0  0
   -6.2723   11.8622    0.0000 S   0  0  0  0  0  0  0  0  0  0  0  0
   -3.9452    5.9080    0.0000 O   0  0  0  0  0  0  0  0  0  0  0  0
   -2.4464    5.8491    0.0000 C   0  0  0  0  0  0  0  0  0  0  0  0
   -2.0962    7.3077    0.0000 O   0  0  0  0  0  0  0  0  0  0  0  0
   -1.0842    5.2211    0.0000 C   0  0  0  0  0  0  0  0  0  0  0  0
   -0.2025    6.4347    0.0000 C   0  0  0  0  0  0  0  0  0  0  0  0
    1.2893    6.2779    0.0000 C   0  0  0  0  0  0  0  0  0  0  0  0
    2.2930    7.3926    0.0000 C   0  0  0  0  0  0  0  0  0  0  0  0
    3.6633    6.7825    0.0000 N   0  0  0  0  0  0  0  0  0  0  0  0
    3.5065    5.2907    0.0000 C   0  0  0  0  0  0  0  0  0  0  0  0
    2.0393    4.9788    0.0000 N   0  0  0  0  0  0  0  0  0  0  0  0
   -0.0660    4.1197    0.0000 N   0  0  0  0  0  0  0  0  0  0  0  0
    0.4532    2.7124    0.0000 C   0  0  0  0  0  0  0  0  0  0  0  0
    1.9347    2.9470    0.0000 O   0  0  0  0  0  0  0  0  0  0  0  0
  1  2  1  0
  2  3  1  0
  3  4  1  0
  4  5  1  0
  5  6  2  0
  5  7  1  0
  7  8  2  0
  8  9  1  0
  9 10  1  0
 10 11  2  0
 10 12  1  0
 12 13  1  0
 13 14  1  0
 14 15  2  0
 14 16  1  0
 16 17  1  0
 17 18  1  0
 18 19  2  3
 19 20  1  0
 20 21  1  0
 21 22  1  0
 17 23  1  0
 23 24  1  0
 24 25  2  0
 24 26  1  0
 26 27  1  0
 27 28  1  0
 28 29  2  0
 29 30  1  0
 30 31  1  0
 31 32  2  0
 26 33  1  0
 33 34  1  0
 34 35  2  0
  6  2  1  0
 11  7  1  0
 32 28  1  0
 34  2  1  0
M  END
>  <molecule_chembl_id>  (1271) 
CHEMBL3317812

>  <canonical_smiles>  (1271) 
CC12CSC(=N1)c1csc(n1)CNC(=O)CC(C=CCCS)OC(=O)C(Cc1c[nH]cn1)NC2=O

>  <pchembl_value_mean>  (1271) 
8.85

>  <document_chembl_id>  (1271) 
CHEMBL3352389

$$$$

     RDKit          2D

 37 40  0  0  0  0  0  0  0  0999 V2000
   14.7990   -8.5442    0.0000 C   0  0  0  0  0  0  0  0  0  0  0  0
   13.2990   -8.5442    0.0000 C   0  0  0  0  0  0  0  0  0  0  0  0
   12.5490   -7.2452    0.0000 C   0  0  0  0  0  0  0  0  0  0  0  0
   13.2990   -5.9462    0.0000 O   0  0  0  0  0  0  0  0  0  0  0  0
   11.0490   -7.2452    0.0000 C   0  0  0  0  0  0  0  0  0  0  0  0
   10.2990   -5.9462    0.0000 C   0  0  0  0  0  0  0  0  0  0  0  0
    8.7990   -5.9462    0.0000 C   0  0  0  0  0  0  0  0  0  0  0  0
    8.0490   -4.6471    0.0000 C   0  0  0  0  0  0  0  0  0  0  0  0
    6.5490   -4.6471    0.0000 C   0  0  0  0  0  0  0  0  0  0  0  0
    5.7990   -3.3481    0.0000 C   0  0  0  0  0  0  0  0  0  0  0  0
    4.2990   -3.3481    0.0000 N   0  0  0  0  0  0  0  0  0  0  0  0
    3.5490   -2.0490    0.0000 C   0  0  0  0  0  0  0  0  0  0  0  0
    4.2990   -0.7500    0.0000 O   0  0  0  0  0  0  0  0  0  0  0  0
    2.0490   -2.0490    0.0000 C   0  0  0  0  0  0  0  0  0  0  0  0
    0.7500   -2.7990    0.0000 C   0  0  0  0  0  0  0  0  0  0  0  0
    0.7500   -1.2990    0.0000 C   0  0  0  0  0  0  0  0  0  0  0  0
    1.5000    0.0000    0.0000 C   0  0  0  0  0  0  0  0  0  0  0  0
    0.7500    1.2990    0.0000 C   0  0  0  0  0  0  0  0  0  0  0  0
   -0.7500    1.2990    0.0000 N   0  0  0  0  0  0  0  0  0  0  0  0
   -1.5000    2.5981    0.0000 C   0  0  0  0  0  0  0  0  0  0  0  0
   -0.7500    3.8971    0.0000 C   0  0  0  0  0  0  0  0  0  0  0  0
   -1.5000    0.0000    0.0000 C   0  0  0  0  0  0  0  0  0  0  0  0
   -0.7500   -1.2990    0.0000 C   0  0  0  0  0  0  0  0  0  0  0  0
    6.5490   -2.0490    0.0000 C   0  0  0  0  0  0  0  0  0  0  0  0
    5.9389   -0.6787    0.0000 N   0  0  0  0  0  0  0  0  0  0  0  0
    7.0537    0.3250    0.0000 C   0  0  0  0  0  0  0  0  0  0  0  0
    8.3527   -0.4250    0.0000 C   0  0  0  0  0  0  0  0  0  0  0  0
    9.7230    0.1851    0.0000 C   0  0  0  0  0  0  0  0  0  0  0  0
   10.9365   -0.6966    0.0000 C   0  0  0  0  0  0  0  0  0  0  0  0
   12.3069   -0.0865    0.0000 C   0  0  0  0  0  0  0  0  0  0  0  0
   12.4636    1.4053    0.0000 C   0  0  0  0  0  0  0  0  0  0  0  0
   13.8340    2.0154    0.0000 C   0  0  0  0  0  0  0  0  0  0  0  0
   11.2501    2.2870    0.0000 N   0  0  0  0  0  0  0  0  0  0  0  0
    9.8798    1.6769    0.0000 C   0  0  0  0  0  0  0  0  0  0  0  0
    8.6663    2.5585    0.0000 O   0  0  0  0  0  0  0  0  0  0  0  0
    8.8231    4.0503    0.0000 C   0  0  0  0  0  0  0  0  0  0  0  0
    8.0408   -1.8922    0.0000 N   0  0  0  0  0  0  0  0  0  0  0  0
  1  2  1  0
  2  3  1  0
  3  4  2  0
  3  5  1  0
  5  6  1  0
  6  7  1  0
  7  8  1  0
  8  9  1  0
  9 10  1  0
 10 11  1  0
 11 12  1  0
 12 13  2  0
 12 14  1  0
 14 15  1  0
 15 16  1  0
 16 17  1  0
 17 18  1  0
 18 19  1  0
 19 20  1  0
 20 21  1  0
 19 22  1  0
 22 23  1  0
 10 24  1  0
 24 25  2  0
 25 26  1  0
 26 27  2  0
 27 28  1  0
 28 29  2  0
 29 30  1  0
 30 31  1  0
 31 32  1  0
 31 33  1  0
 33 34  2  0
 34 35  1  0
 35 36  1  0
 27 37  1  0
 16 14  1  0
 37 24  1  0
 23 16  1  0
 34 28  1  0
M  END
>  <molecule_chembl_id>  (1272) 
CHEMBL4780974

>  <canonical_smiles>  (1272) 
CCC(=O)CCCCCC(NC(=O)C1CC12CCN(CC)CC2)c1ncc(C2=CCC(C)N=C2OC)[nH]1

>  <pchembl_value_mean>  (1272) 
8.85

>  <document_chembl_id>  (1272) 
CHEMBL4680369

$$$$

     RDKit          2D

 40 45  0  0  0  0  0  0  0  0999 V2000
  -15.6646  -13.5568    0.0000 C   0  0  0  0  0  0  0  0  0  0  0  0
  -14.9146  -12.2578    0.0000 C   0  0  0  0  0  0  0  0  0  0  0  0
  -13.4146  -12.2578    0.0000 C   0  0  0  0  0  0  0  0  0  0  0  0
  -12.6646  -13.5568    0.0000 O   0  0  0  0  0  0  0  0  0  0  0  0
  -12.6646  -10.9587    0.0000 C   0  0  0  0  0  0  0  0  0  0  0  0
  -11.1646  -10.9587    0.0000 C   0  0  0  0  0  0  0  0  0  0  0  0
  -10.4146   -9.6597    0.0000 C   0  0  0  0  0  0  0  0  0  0  0  0
   -8.9146   -9.6597    0.0000 C   0  0  0  0  0  0  0  0  0  0  0  0
   -8.1646   -8.3607    0.0000 C   0  0  0  0  0  0  0  0  0  0  0  0
   -6.6646   -8.3607    0.0000 C   0  0  0  0  0  0  0  0  0  0  0  0
   -5.9146   -9.6597    0.0000 N   0  0  0  0  0  0  0  0  0  0  0  0
   -6.6646  -10.9587    0.0000 C   0  0  0  0  0  0  0  0  0  0  0  0
   -8.1646  -10.9587    0.0000 O   0  0  0  0  0  0  0  0  0  0  0  0
   -5.9146  -12.2578    0.0000 C   0  0  0  0  0  0  0  0  0  0  0  0
   -4.6156  -13.0078    0.0000 C   0  0  0  0  0  0  0  0  0  0  0  0
   -5.9146  -13.7578    0.0000 C   0  0  0  0  0  0  0  0  0  0  0  0
   -7.4146  -13.7578    0.0000 C   0  0  0  0  0  0  0  0  0  0  0  0
   -8.1646  -15.0568    0.0000 C   0  0  0  0  0  0  0  0  0  0  0  0
   -7.4146  -16.3559    0.0000 N   0  0  0  0  0  0  0  0  0  0  0  0
   -8.1646  -17.6549    0.0000 C   0  0  0  0  0  0  0  0  0  0  0  0
   -5.9146  -16.3559    0.0000 C   0  0  0  0  0  0  0  0  0  0  0  0
   -5.1646  -15.0568    0.0000 C   0  0  0  0  0  0  0  0  0  0  0  0
   -5.9146   -7.0616    0.0000 C   0  0  0  0  0  0  0  0  0  0  0  0
   -6.5247   -5.6913    0.0000 N   0  0  0  0  0  0  0  0  0  0  0  0
   -5.4100   -4.6876    0.0000 C   0  0  0  0  0  0  0  0  0  0  0  0
   -4.1110   -5.4376    0.0000 C   0  0  0  0  0  0  0  0  0  0  0  0
   -2.7406   -4.8275    0.0000 C   0  0  0  0  0  0  0  0  0  0  0  0
   -1.5271   -5.7092    0.0000 C   0  0  0  0  0  0  0  0  0  0  0  0
   -0.1568   -5.0991    0.0000 C   0  0  0  0  0  0  0  0  0  0  0  0
   -0.0000   -3.6073    0.0000 C   0  0  0  0  0  0  0  0  0  0  0  0
    1.2135   -2.7256    0.0000 N   0  0  0  0  0  0  0  0  0  0  0  0
    0.7500   -1.2990    0.0000 C   0  0  0  0  0  0  0  0  0  0  0  0
    1.5000    0.0000    0.0000 C   0  0  0  0  0  0  0  0  0  0  0  0
    0.7500    1.2990    0.0000 C   0  0  0  0  0  0  0  0  0  0  0  0
   -0.7500    1.2990    0.0000 C   0  0  0  0  0  0  0  0  0  0  0  0
   -1.5000    0.0000    0.0000 C   0  0  0  0  0  0  0  0  0  0  0  0
   -0.7500   -1.2990    0.0000 C   0  0  0  0  0  0  0  0  0  0  0  0
   -1.2135   -2.7256    0.0000 C   0  0  0  0  0  0  0  0  0  0  0  0
   -2.5838   -3.3357    0.0000 C   0  0  0  0  0  0  0  0  0  0  0  0
   -4.4228   -6.9048    0.0000 N   0  0  0  0  0  0  0  0  0  0  0  0
  1  2  1  0
  2  3  1  0
  3  4  2  0
  3  5  1  0
  5  6  1  0
  6  7  1  0
  7  8  1  0
  8  9  1  0
  9 10  1  0
 10 11  1  0
 11 12  1  0
 12 13  2  0
 12 14  1  0
 14 15  1  0
 15 16  1  0
 16 17  1  0
 17 18  1  0
 18 19  1  0
 19 20  1  0
 19 21  1  0
 21 22  1  0
 10 23  1  0
 23 24  2  0
 24 25  1  0
 25 26  2  0
 26 27  1  0
 27 28  2  0
 28 29  1  0
 29 30  2  0
 30 31  1  0
 31 32  1  0
 32 33  2  0
 33 34  1  0
 34 35  2  0
 35 36  1  0
 36 37  2  0
 37 38  1  0
 38 39  2  0
 26 40  1  0
 16 14  1  0
 40 23  1  0
 22 16  1  0
 39 27  1  0
 38 30  1  0
 37 32  1  0
M  END
>  <molecule_chembl_id>  (1273) 
CHEMBL4780309

>  <canonical_smiles>  (1273) 
CCC(=O)CCCCCC(NC(=O)C1CC12CCN(C)CC2)c1ncc(-c2ccc3[nH]c4ccccc4c3c2)[nH]1

>  <pchembl_value_mean>  (1273) 
8.96

>  <document_chembl_id>  (1273) 
CHEMBL4680369

$$$$

     RDKit          2D

 29 31  0  0  0  0  0  0  0  0999 V2000
   12.7500   -3.8971    0.0000 O   0  0  0  0  0  0  0  0  0  0  0  0
   12.0000   -5.1962    0.0000 C   0  0  0  0  0  0  0  0  0  0  0  0
   10.5000   -5.1962    0.0000 C   0  0  0  0  0  0  0  0  0  0  0  0
    9.7500   -3.8971    0.0000 C   0  0  0  0  0  0  0  0  0  0  0  0
    8.2500   -3.8971    0.0000 C   0  0  0  0  0  0  0  0  0  0  0  0
    7.5000   -2.5981    0.0000 C   0  0  0  0  0  0  0  0  0  0  0  0
    6.0000   -2.5981    0.0000 C   0  0  0  0  0  0  0  0  0  0  0  0
    5.2500   -1.2990    0.0000 C   0  0  0  0  0  0  0  0  0  0  0  0
    3.7500   -1.2990    0.0000 C   0  0  0  0  0  0  0  0  0  0  0  0
    3.0000   -2.5981    0.0000 O   0  0  0  0  0  0  0  0  0  0  0  0
    3.0000    0.0000    0.0000 N   0  0  0  0  0  0  0  0  0  0  0  0
    1.5000    0.0000    0.0000 C   0  0  0  0  0  0  0  0  0  0  0  0
    0.7500   -1.2990    0.0000 C   0  0  0  0  0  0  0  0  0  0  0  0
   -0.7500   -1.2990    0.0000 C   0  0  0  0  0  0  0  0  0  0  0  0
   -1.5000    0.0000    0.0000 C   0  0  0  0  0  0  0  0  0  0  0  0
   -0.7500    1.2990    0.0000 C   0  0  0  0  0  0  0  0  0  0  0  0
    0.7500    1.2990    0.0000 C   0  0  0  0  0  0  0  0  0  0  0  0
   -1.7537    2.4138    0.0000 C   0  0  0  0  0  0  0  0  0  0  0  0
   -1.4418    3.8810    0.0000 C   0  0  0  0  0  0  0  0  0  0  0  0
   -2.5565    4.8847    0.0000 C   0  0  0  0  0  0  0  0  0  0  0  0
   -4.0238    4.5728    0.0000 C   0  0  0  0  0  0  0  0  0  0  0  0
   -4.7738    5.8718    0.0000 C   0  0  0  0  0  0  0  0  0  0  0  0
   -3.7701    6.9866    0.0000 C   0  0  0  0  0  0  0  0  0  0  0  0
   -2.3998    6.3765    0.0000 N   0  0  0  0  0  0  0  0  0  0  0  0
   -3.1240    1.8037    0.0000 C   0  0  0  0  0  0  0  0  0  0  0  0
   -4.4231    2.5537    0.0000 O   0  0  0  0  0  0  0  0  0  0  0  0
   -2.9672    0.3119    0.0000 N   0  0  0  0  0  0  0  0  0  0  0  0
   12.7500   -6.4952    0.0000 N   0  0  0  0  0  0  0  0  0  0  0  0
   14.2500   -6.4952    0.0000 O   0  0  0  0  0  0  0  0  0  0  0  0
  1  2  2  0
  2  3  1  0
  3  4  1  0
  4  5  1  0
  5  6  1  0
  6  7  1  0
  7  8  1  0
  8  9  1  0
  9 10  2  0
  9 11  1  0
 11 12  1  0
 12 13  2  0
 13 14  1  0
 14 15  2  0
 15 16  1  0
 16 17  2  0
 16 18  1  0
 18 19  2  3
 19 20  1  0
 20 21  2  0
 21 22  1  0
 22 23  2  0
 23 24  1  0
 18 25  1  0
 25 26  2  0
 25 27  1  0
  2 28  1  0
 28 29  1  0
 17 12  1  0
 24 20  1  0
 27 15  1  0
M  END
>  <molecule_chembl_id>  (1274) 
CHEMBL3621294

>  <canonical_smiles>  (1274) 
O=C(CCCCCCC(=O)Nc1ccc2c(c1)C(=Cc1ccc[nH]1)C(=O)N2)NO

>  <pchembl_value_mean>  (1274) 
8.96

>  <document_chembl_id>  (1274) 
CHEMBL3621077

$$$$

     RDKit          2D

 42 45  0  0  0  0  0  0  0  0999 V2000
    8.1662    4.8616    0.0000 C   0  0  0  0  0  0  0  0  0  0  0  0
    7.1625    3.7468    0.0000 C   0  0  0  0  0  0  0  0  0  0  0  0
    6.1588    2.6321    0.0000 C   0  0  0  0  0  0  0  0  0  0  0  0
    8.2772    2.7431    0.0000 C   0  0  0  0  0  0  0  0  0  0  0  0
    6.0478    4.7505    0.0000 O   0  0  0  0  0  0  0  0  0  0  0  0
    4.6212    4.2870    0.0000 C   0  0  0  0  0  0  0  0  0  0  0  0
    4.3093    2.8198    0.0000 O   0  0  0  0  0  0  0  0  0  0  0  0
    3.5065    5.2907    0.0000 N   0  0  0  0  0  0  0  0  0  0  0  0
    3.6633    6.7825    0.0000 C   0  0  0  0  0  0  0  0  0  0  0  0
    2.2930    7.3926    0.0000 N   0  0  0  0  0  0  0  0  0  0  0  0
    1.2893    6.2779    0.0000 C   0  0  0  0  0  0  0  0  0  0  0  0
   -0.2025    6.4347    0.0000 C   0  0  0  0  0  0  0  0  0  0  0  0
   -1.0842    5.2211    0.0000 C   0  0  0  0  0  0  0  0  0  0  0  0
   -0.0660    4.1197    0.0000 N   0  0  0  0  0  0  0  0  0  0  0  0
    0.4532    2.7124    0.0000 C   0  0  0  0  0  0  0  0  0  0  0  0
    1.9347    2.9470    0.0000 O   0  0  0  0  0  0  0  0  0  0  0  0
    0.3943    1.2135    0.0000 C   0  0  0  0  0  0  0  0  0  0  0  0
    0.4499    2.0087    0.0000 C   0  0  0  0  0  0  0  0  0  0  0  0
    1.2760    0.0000    0.0000 C   0  0  0  0  0  0  0  0  0  0  0  0
    0.3943   -1.2135    0.0000 S   0  0  0  0  0  0  0  0  0  0  0  0
   -1.0323   -0.7500    0.0000 C   0  0  0  0  0  0  0  0  0  0  0  0
   -1.0323    0.7500    0.0000 N   0  0  0  0  0  0  0  0  0  0  0  0
   -2.7425   -1.6861    0.0000 C   0  0  0  0  0  0  0  0  0  0  0  0
   -3.5262   -2.9650    0.0000 C   0  0  0  0  0  0  0  0  0  0  0  0
   -4.9848   -2.6149    0.0000 S   0  0  0  0  0  0  0  0  0  0  0  0
   -5.6035   -0.9992    0.0000 C   0  0  0  0  0  0  0  0  0  0  0  0
   -4.2413   -1.6272    0.0000 N   0  0  0  0  0  0  0  0  0  0  0  0
   -6.6217    0.1023    0.0000 C   0  0  0  0  0  0  0  0  0  0  0  0
   -7.1409    1.5096    0.0000 N   0  0  0  0  0  0  0  0  0  0  0  0
   -7.0820    3.0084    0.0000 C   0  0  0  0  0  0  0  0  0  0  0  0
   -8.5406    3.3586    0.0000 O   0  0  0  0  0  0  0  0  0  0  0  0
   -6.4540    4.3706    0.0000 C   0  0  0  0  0  0  0  0  0  0  0  0
   -5.3525    5.3888    0.0000 C   0  0  0  0  0  0  0  0  0  0  0  0
   -6.1363    6.6678    0.0000 C   0  0  0  0  0  0  0  0  0  0  0  0
   -5.4205    7.9860    0.0000 C   0  0  0  0  0  0  0  0  0  0  0  0
   -6.2043    9.2650    0.0000 C   0  0  0  0  0  0  0  0  0  0  0  0
   -5.4886   10.5832    0.0000 C   0  0  0  0  0  0  0  0  0  0  0  0
   -6.2723   11.8622    0.0000 S   0  0  0  0  0  0  0  0  0  0  0  0
   -3.9452    5.9080    0.0000 O   0  0  0  0  0  0  0  0  0  0  0  0
   -2.4464    5.8491    0.0000 C   0  0  0  0  0  0  0  0  0  0  0  0
   -2.0962    7.3077    0.0000 O   0  0  0  0  0  0  0  0  0  0  0  0
    2.0393    4.9788    0.0000 C   0  0  0  0  0  0  0  0  0  0  0  0
  1  2  1  0
  2  3  1  0
  2  4  1  0
  2  5  1  0
  5  6  1  0
  6  7  2  0
  6  8  1  0
  8  9  1  0
  9 10  2  0
 10 11  1  0
 11 12  1  0
 12 13  1  0
 13 14  1  0
 14 15  1  0
 15 16  2  0
 15 17  1  0
 17 18  1  0
 17 19  1  0
 19 20  1  0
 20 21  1  0
 21 22  2  0
 21 23  1  0
 23 24  2  0
 24 25  1  0
 25 26  1  0
 26 27  2  0
 26 28  1  0
 28 29  1  0
 29 30  1  0
 30 31  2  0
 30 32  1  0
 32 33  1  0
 33 34  1  0
 34 35  2  3
 35 36  1  0
 36 37  1  0
 37 38  1  0
 33 39  1  0
 39 40  1  0
 40 41  2  0
 11 42  2  0
 42  8  1  0
 40 13  1  0
 22 17  1  0
 27 23  1  0
M  END
>  <molecule_chembl_id>  (1275) 
CHEMBL3317818

>  <canonical_smiles>  (1275) 
CC(C)(C)OC(=O)n1cnc(CC2NC(=O)C3(C)CSC(=N3)c3csc(n3)CNC(=O)CC(C=CCCS)OC2=O)c1

>  <pchembl_value_mean>  (1275) 
8.96

>  <document_chembl_id>  (1275) 
CHEMBL3352389

$$$$

     RDKit          2D

 27 28  0  0  0  0  0  0  0  0999 V2000
   15.0000   -5.1962    0.0000 O   0  0  0  0  0  0  0  0  0  0  0  0
   14.2500   -6.4952    0.0000 C   0  0  0  0  0  0  0  0  0  0  0  0
   12.7500   -6.4952    0.0000 C   0  0  0  0  0  0  0  0  0  0  0  0
   12.0000   -5.1962    0.0000 C   0  0  0  0  0  0  0  0  0  0  0  0
   10.5000   -5.1962    0.0000 C   0  0  0  0  0  0  0  0  0  0  0  0
    9.7500   -3.8971    0.0000 C   0  0  0  0  0  0  0  0  0  0  0  0
    8.2500   -3.8971    0.0000 C   0  0  0  0  0  0  0  0  0  0  0  0
    7.5000   -2.5981    0.0000 C   0  0  0  0  0  0  0  0  0  0  0  0
    6.0000   -2.5981    0.0000 C   0  0  0  0  0  0  0  0  0  0  0  0
    5.2500   -3.8971    0.0000 O   0  0  0  0  0  0  0  0  0  0  0  0
    5.2500   -1.2990    0.0000 N   0  0  0  0  0  0  0  0  0  0  0  0
    3.7500   -1.2990    0.0000 N   0  0  0  0  0  0  0  0  0  0  0  0
    3.0000    0.0000    0.0000 C   0  0  0  0  0  0  0  0  0  0  0  0
    1.5000    0.0000    0.0000 C   0  0  0  0  0  0  0  0  0  0  0  0
    0.7500   -1.2990    0.0000 C   0  0  0  0  0  0  0  0  0  0  0  0
   -0.7500   -1.2990    0.0000 C   0  0  0  0  0  0  0  0  0  0  0  0
   -1.5000    0.0000    0.0000 C   0  0  0  0  0  0  0  0  0  0  0  0
   -3.0000    0.0000    0.0000 C   0  0  0  0  0  0  0  0  0  0  0  0
   -3.7500    1.2990    0.0000 C   0  0  0  0  0  0  0  0  0  0  0  0
   -5.2500    1.2990    0.0000 C   0  0  0  0  0  0  0  0  0  0  0  0
   -6.0000    0.0000    0.0000 C   0  0  0  0  0  0  0  0  0  0  0  0
   -5.2500   -1.2990    0.0000 C   0  0  0  0  0  0  0  0  0  0  0  0
   -3.7500   -1.2990    0.0000 C   0  0  0  0  0  0  0  0  0  0  0  0
   -0.7500    1.2990    0.0000 C   0  0  0  0  0  0  0  0  0  0  0  0
    0.7500    1.2990    0.0000 C   0  0  0  0  0  0  0  0  0  0  0  0
   15.0000   -7.7942    0.0000 N   0  0  0  0  0  0  0  0  0  0  0  0
   16.5000   -7.7942    0.0000 O   0  0  0  0  0  0  0  0  0  0  0  0
  1  2  2  0
  2  3  1  0
  3  4  1  0
  4  5  1  0
  5  6  1  0
  6  7  1  0
  7  8  1  0
  8  9  1  0
  9 10  2  0
  9 11  1  0
 11 12  1  0
 12 13  2  3
 13 14  1  0
 14 15  2  0
 15 16  1  0
 16 17  2  0
 17 18  1  0
 18 19  2  0
 19 20  1  0
 20 21  2  0
 21 22  1  0
 22 23  2  0
 17 24  1  0
 24 25  2  0
  2 26  1  0
 26 27  1  0
 25 14  1  0
 23 18  1  0
M  END
>  <molecule_chembl_id>  (1276) 
CHEMBL3759921

>  <canonical_smiles>  (1276) 
O=C(CCCCCCC(=O)NN=Cc1ccc(-c2ccccc2)cc1)NO

>  <pchembl_value_mean>  (1276) 
9.0

>  <document_chembl_id>  (1276) 
CHEMBL3758132

$$$$

     RDKit          2D

 50 52  0  0  0  0  0  0  0  0999 V2000
    1.5922    6.6948    0.0000 C   0  0  0  0  0  0  0  0  0  0  0  0
    0.1004    6.8516    0.0000 C   0  0  0  0  0  0  0  0  0  0  0  0
   -0.5097    8.2219    0.0000 C   0  0  0  0  0  0  0  0  0  0  0  0
   -0.7813    5.6380    0.0000 C   0  0  0  0  0  0  0  0  0  0  0  0
    0.2369    4.5365    0.0000 N   0  0  0  0  0  0  0  0  0  0  0  0
    0.7561    3.1293    0.0000 C   0  0  0  0  0  0  0  0  0  0  0  0
    2.2376    3.3639    0.0000 O   0  0  0  0  0  0  0  0  0  0  0  0
    0.3943    1.2135    0.0000 C   0  0  0  0  0  0  0  0  0  0  0  0
    0.4790    2.4256    0.0000 C   0  0  0  0  0  0  0  0  0  0  0  0
    1.2760    0.0000    0.0000 C   0  0  0  0  0  0  0  0  0  0  0  0
    0.3943   -1.2135    0.0000 S   0  0  0  0  0  0  0  0  0  0  0  0
   -1.0323   -0.7500    0.0000 C   0  0  0  0  0  0  0  0  0  0  0  0
   -1.0323    0.7500    0.0000 N   0  0  0  0  0  0  0  0  0  0  0  0
   -2.4396   -1.2692    0.0000 C   0  0  0  0  0  0  0  0  0  0  0  0
   -3.2233   -2.5481    0.0000 C   0  0  0  0  0  0  0  0  0  0  0  0
   -4.6819   -2.1980    0.0000 S   0  0  0  0  0  0  0  0  0  0  0  0
   -5.3006   -0.5823    0.0000 C   0  0  0  0  0  0  0  0  0  0  0  0
   -3.9384   -1.2103    0.0000 N   0  0  0  0  0  0  0  0  0  0  0  0
   -6.3188    0.5192    0.0000 C   0  0  0  0  0  0  0  0  0  0  0  0
   -6.8380    1.9265    0.0000 N   0  0  0  0  0  0  0  0  0  0  0  0
   -6.7791    3.4253    0.0000 C   0  0  0  0  0  0  0  0  0  0  0  0
   -8.2377    3.7755    0.0000 O   0  0  0  0  0  0  0  0  0  0  0  0
   -6.1511    4.7875    0.0000 C   0  0  0  0  0  0  0  0  0  0  0  0
   -5.0496    5.8057    0.0000 C   0  0  0  0  0  0  0  0  0  0  0  0
   -5.8334    7.0847    0.0000 C   0  0  0  0  0  0  0  0  0  0  0  0
   -5.1177    8.4029    0.0000 C   0  0  0  0  0  0  0  0  0  0  0  0
   -5.9014    9.6819    0.0000 C   0  0  0  0  0  0  0  0  0  0  0  0
   -5.1857   11.0001    0.0000 C   0  0  0  0  0  0  0  0  0  0  0  0
   -5.9694   12.2791    0.0000 S   0  0  0  0  0  0  0  0  0  0  0  0
   -5.2537   13.5973    0.0000 S   0  0  0  0  0  0  0  0  0  0  0  0
   -6.0374   14.8763    0.0000 C   0  0  0  0  0  0  0  0  0  0  0  0
   -5.3217   16.1945    0.0000 C   0  0  0  0  0  0  0  0  0  0  0  0
   -3.8222   16.2337    0.0000 N   0  0  0  0  0  0  0  0  0  0  0  0
   -3.1065   17.5520    0.0000 C   0  0  0  0  0  0  0  0  0  0  0  0
   -3.8902   18.8309    0.0000 O   0  0  0  0  0  0  0  0  0  0  0  0
   -1.6070   17.5912    0.0000 O   0  0  0  0  0  0  0  0  0  0  0  0
   -0.8912   18.9095    0.0000 C   0  0  0  0  0  0  0  0  0  0  0  0
    0.4270   18.1937    0.0000 C   0  0  0  0  0  0  0  0  0  0  0  0
   -2.2095   19.6252    0.0000 C   0  0  0  0  0  0  0  0  0  0  0  0
   -0.1755   20.2277    0.0000 C   0  0  0  0  0  0  0  0  0  0  0  0
   -6.1054   17.4734    0.0000 C   0  0  0  0  0  0  0  0  0  0  0  0
   -7.6049   17.4342    0.0000 O   0  0  0  0  0  0  0  0  0  0  0  0
   -5.3897   18.7917    0.0000 O   0  0  0  0  0  0  0  0  0  0  0  0
   -6.1734   20.0706    0.0000 C   0  0  0  0  0  0  0  0  0  0  0  0
   -4.8945   20.8544    0.0000 C   0  0  0  0  0  0  0  0  0  0  0  0
   -7.4524   19.2869    0.0000 C   0  0  0  0  0  0  0  0  0  0  0  0
   -6.9572   21.3496    0.0000 C   0  0  0  0  0  0  0  0  0  0  0  0
   -3.6424    6.3249    0.0000 O   0  0  0  0  0  0  0  0  0  0  0  0
   -2.1435    6.2660    0.0000 C   0  0  0  0  0  0  0  0  0  0  0  0
   -1.7933    7.7246    0.0000 O   0  0  0  0  0  0  0  0  0  0  0  0
  1  2  1  0
  2  3  1  0
  2  4  1  0
  4  5  1  0
  5  6  1  0
  6  7  2  0
  6  8  1  0
  8  9  1  0
  8 10  1  0
 10 11  1  0
 11 12  1  0
 12 13  2  0
 12 14  1  0
 14 15  2  0
 15 16  1  0
 16 17  1  0
 17 18  2  0
 17 19  1  0
 19 20  1  0
 20 21  1  0
 21 22  2  0
 21 23  1  0
 23 24  1  0
 24 25  1  0
 25 26  2  3
 26 27  1  0
 27 28  1  0
 28 29  1  0
 29 30  1  0
 30 31  1  0
 31 32  1  0
 32 33  1  0
 33 34  1  0
 34 35  2  0
 34 36  1  0
 36 37  1  0
 37 38  1  0
 37 39  1  0
 37 40  1  0
 32 41  1  0
 41 42  2  0
 41 43  1  0
 43 44  1  0
 44 45  1  0
 44 46  1  0
 44 47  1  0
 24 48  1  0
 48 49  1  0
 49 50  2  0
 49  4  1  0
 13  8  1  0
 18 14  1  0
M  END
>  <molecule_chembl_id>  (1277) 
CHEMBL3329622

>  <canonical_smiles>  (1277) 
CC(C)C1NC(=O)C2(C)CSC(=N2)c2csc(n2)CNC(=O)CC(C=CCCSSCC(NC(=O)OC(C)(C)C)C(=O)OC(C)(C)C)OC1=O

>  <pchembl_value_mean>  (1277) 
9.05

>  <document_chembl_id>  (1277) 
CHEMBL3352121

$$$$

     RDKit          2D

 27 29  0  0  0  0  0  0  0  0999 V2000
  -13.9179    8.8562    0.0000 O   0  0  0  0  0  0  0  0  0  0  0  0
  -12.4913    9.3197    0.0000 C   0  0  0  0  0  0  0  0  0  0  0  0
  -11.3766    8.3160    0.0000 C   0  0  0  0  0  0  0  0  0  0  0  0
  -11.6885    6.8488    0.0000 C   0  0  0  0  0  0  0  0  0  0  0  0
  -10.5738    5.8451    0.0000 C   0  0  0  0  0  0  0  0  0  0  0  0
   -9.1472    6.3086    0.0000 C   0  0  0  0  0  0  0  0  0  0  0  0
   -8.0325    5.3050    0.0000 C   0  0  0  0  0  0  0  0  0  0  0  0
   -8.3443    3.8377    0.0000 C   0  0  0  0  0  0  0  0  0  0  0  0
   -7.2296    2.8340    0.0000 S   0  0  0  0  0  0  0  0  0  0  0  0
   -6.2259    3.9488    0.0000 O   0  0  0  0  0  0  0  0  0  0  0  0
   -8.2333    1.7193    0.0000 O   0  0  0  0  0  0  0  0  0  0  0  0
   -6.1149    1.8303    0.0000 N   0  0  0  0  0  0  0  0  0  0  0  0
   -4.6883    2.2939    0.0000 C   0  0  0  0  0  0  0  0  0  0  0  0
   -3.5736    1.2902    0.0000 C   0  0  0  0  0  0  0  0  0  0  0  0
   -2.1470    1.7537    0.0000 C   0  0  0  0  0  0  0  0  0  0  0  0
   -1.8351    3.2209    0.0000 C   0  0  0  0  0  0  0  0  0  0  0  0
   -0.4086    3.6844    0.0000 C   0  0  0  0  0  0  0  0  0  0  0  0
    0.7062    2.6807    0.0000 C   0  0  0  0  0  0  0  0  0  0  0  0
    0.3943    1.2135    0.0000 C   0  0  0  0  0  0  0  0  0  0  0  0
    1.2760    0.0000    0.0000 N   0  0  0  0  0  0  0  0  0  0  0  0
    0.3943   -1.2135    0.0000 C   0  0  0  0  0  0  0  0  0  0  0  0
   -1.0323   -0.7500    0.0000 C   0  0  0  0  0  0  0  0  0  0  0  0
   -1.0323    0.7500    0.0000 C   0  0  0  0  0  0  0  0  0  0  0  0
   -9.7709    3.3742    0.0000 C   0  0  0  0  0  0  0  0  0  0  0  0
  -10.8856    4.3779    0.0000 C   0  0  0  0  0  0  0  0  0  0  0  0
  -12.1795   10.7870    0.0000 N   0  0  0  0  0  0  0  0  0  0  0  0
  -13.2942   11.7907    0.0000 O   0  0  0  0  0  0  0  0  0  0  0  0
  1  2  2  0
  2  3  1  0
  3  4  2  3
  4  5  1  0
  5  6  2  0
  6  7  1  0
  7  8  2  0
  8  9  1  0
  9 10  2  0
  9 11  2  0
  9 12  1  0
 12 13  1  0
 13 14  1  0
 14 15  1  0
 15 16  2  0
 16 17  1  0
 17 18  2  0
 18 19  1  0
 19 20  1  0
 20 21  1  0
 21 22  2  0
 22 23  1  0
  8 24  1  0
 24 25  2  0
  2 26  1  0
 26 27  1  0
 25  5  1  0
 23 15  1  0
 23 19  2  0
M  END
>  <molecule_chembl_id>  (1278) 
CHEMBL4069853

>  <canonical_smiles>  (1278) 
O=C(C=Cc1ccc(S(=O)(=O)NCCc2cccc3[nH]ccc23)cc1)NO

>  <pchembl_value_mean>  (1278) 
9.05

>  <document_chembl_id>  (1278) 
CHEMBL4020709

$$$$

     RDKit          2D

 41 47  0  0  0  0  0  0  0  0999 V2000
    8.6807  -12.4403    0.0000 C   0  0  0  0  0  0  0  0  0  0  0  0
    9.2182  -11.0399    0.0000 C   0  0  0  0  0  0  0  0  0  0  0  0
    8.2742   -9.8742    0.0000 C   0  0  0  0  0  0  0  0  0  0  0  0
    6.7927  -10.1089    0.0000 O   0  0  0  0  0  0  0  0  0  0  0  0
    8.8118   -8.4738    0.0000 C   0  0  0  0  0  0  0  0  0  0  0  0
    7.8678   -7.3081    0.0000 C   0  0  0  0  0  0  0  0  0  0  0  0
    8.4054   -5.9078    0.0000 C   0  0  0  0  0  0  0  0  0  0  0  0
    7.4614   -4.7420    0.0000 C   0  0  0  0  0  0  0  0  0  0  0  0
    7.9989   -3.3417    0.0000 C   0  0  0  0  0  0  0  0  0  0  0  0
    7.0549   -2.1759    0.0000 C   0  0  0  0  0  0  0  0  0  0  0  0
    5.7559   -2.9259    0.0000 N   0  0  0  0  0  0  0  0  0  0  0  0
    4.2887   -3.2378    0.0000 C   0  0  0  0  0  0  0  0  0  0  0  0
    4.3672   -4.7358    0.0000 O   0  0  0  0  0  0  0  0  0  0  0  0
    2.7969   -3.0810    0.0000 C   0  0  0  0  0  0  0  0  0  0  0  0
    1.3783   -3.5683    0.0000 C   0  0  0  0  0  0  0  0  0  0  0  0
    0.7500   -1.2990    0.0000 C   0  0  0  0  0  0  0  0  0  0  0  0
    1.5000    0.0000    0.0000 C   0  0  0  0  0  0  0  0  0  0  0  0
    0.7500    1.2990    0.0000 C   0  0  0  0  0  0  0  0  0  0  0  0
   -0.7500    1.2990    0.0000 N   0  0  0  0  0  0  0  0  0  0  0  0
   -0.5932    2.7908    0.0000 C   0  0  0  0  0  0  0  0  0  0  0  0
    0.0169    4.1611    0.0000 C   0  0  0  0  0  0  0  0  0  0  0  0
    1.0206    5.2759    0.0000 C   0  0  0  0  0  0  0  0  0  0  0  0
    2.3196    6.0259    0.0000 C   0  0  0  0  0  0  0  0  0  0  0  0
    3.7869    6.3377    0.0000 N   0  0  0  0  0  0  0  0  0  0  0  0
    3.4750    7.8049    0.0000 C   0  0  0  0  0  0  0  0  0  0  0  0
    4.1278    7.4568    0.0000 C   0  0  0  0  0  0  0  0  0  0  0  0
    4.8642    6.7938    0.0000 C   0  0  0  0  0  0  0  0  0  0  0  0
    5.2786    6.1809    0.0000 C   0  0  0  0  0  0  0  0  0  0  0  0
    6.6490    5.5708    0.0000 C   0  0  0  0  0  0  0  0  0  0  0  0
    7.7637    4.5671    0.0000 C   0  0  0  0  0  0  0  0  0  0  0  0
    8.5137    3.2681    0.0000 C   0  0  0  0  0  0  0  0  0  0  0  0
    8.4636    5.7811    0.0000 C   0  0  0  0  0  0  0  0  0  0  0  0
    7.6629    7.0495    0.0000 C   0  0  0  0  0  0  0  0  0  0  0  0
    6.1641    6.9903    0.0000 C   0  0  0  0  0  0  0  0  0  0  0  0
    8.8255    1.8009    0.0000 C   0  0  0  0  0  0  0  0  0  0  0  0
   10.0835    0.9839    0.0000 C   0  0  0  0  0  0  0  0  0  0  0  0
    9.6953   -0.4650    0.0000 N   0  0  0  0  0  0  0  0  0  0  0  0
    8.0586   -1.0612    0.0000 C   0  0  0  0  0  0  0  0  0  0  0  0
    8.6687    0.3091    0.0000 N   0  0  0  0  0  0  0  0  0  0  0  0
   -1.5000    0.0000    0.0000 C   0  0  0  0  0  0  0  0  0  0  0  0
   -0.7500   -1.2990    0.0000 C   0  0  0  0  0  0  0  0  0  0  0  0
  1  2  1  0
  2  3  1  0
  3  4  2  0
  3  5  1  0
  5  6  1  0
  6  7  1  0
  7  8  1  0
  8  9  1  0
  9 10  1  0
 10 11  1  0
 11 12  1  0
 12 13  2  0
 12 14  1  0
 14 15  1  0
 15 16  1  0
 16 17  1  0
 17 18  1  0
 18 19  1  0
 19 20  1  0
 20 21  1  0
 21 22  2  0
 22 23  1  0
 23 24  1  0
 24 25  1  0
 25 26  1  0
 26 27  1  0
 27 28  1  0
 28 29  1  0
 29 30  1  0
 30 31  2  0
 31 32  1  0
 32 33  2  0
 33 34  1  0
 31 35  1  0
 35 36  2  0
 36 37  1  0
 37 38  2  0
 38 39  1  0
 19 40  1  0
 40 41  1  0
 38 10  1  0
 16 14  1  0
 28 24  1  0
 34 29  2  0
 39 35  1  0
 41 16  1  0
 34 25  1  0
M  END
>  <molecule_chembl_id>  (1279) 
CHEMBL4854377

>  <canonical_smiles>  (1279) 
CCC(=O)CCCCCC1NC(=O)C2CC23CCN(CC=CCN2C4CCC2c2cc(ccc24)-c2cnc1[nH]2)CC3

>  <pchembl_value_mean>  (1279) 
9.07

>  <document_chembl_id>  (1279) 
CHEMBL4811291

$$$$

     RDKit          2D

 33 36  0  0  0  0  0  0  0  0999 V2000
   11.4010   -1.5504    0.0000 C   0  0  0  0  0  0  0  0  0  0  0  0
   10.1875   -2.4321    0.0000 N   0  0  0  0  0  0  0  0  0  0  0  0
    9.9529   -3.9136    0.0000 C   0  0  0  0  0  0  0  0  0  0  0  0
    8.4713   -3.6789    0.0000 C   0  0  0  0  0  0  0  0  0  0  0  0
    7.2578   -4.5606    0.0000 C   0  0  0  0  0  0  0  0  0  0  0  0
    7.4146   -6.0524    0.0000 O   0  0  0  0  0  0  0  0  0  0  0  0
    5.8875   -3.9505    0.0000 N   0  0  0  0  0  0  0  0  0  0  0  0
    4.6740   -4.8322    0.0000 C   0  0  0  0  0  0  0  0  0  0  0  0
    4.8308   -6.3240    0.0000 C   0  0  0  0  0  0  0  0  0  0  0  0
    6.2011   -6.9341    0.0000 C   0  0  0  0  0  0  0  0  0  0  0  0
    6.3579   -8.4259    0.0000 C   0  0  0  0  0  0  0  0  0  0  0  0
    7.7282   -9.0360    0.0000 C   0  0  0  0  0  0  0  0  0  0  0  0
    7.8850  -10.5278    0.0000 C   0  0  0  0  0  0  0  0  0  0  0  0
    9.2553  -11.1379    0.0000 C   0  0  0  0  0  0  0  0  0  0  0  0
   10.4688  -10.2562    0.0000 O   0  0  0  0  0  0  0  0  0  0  0  0
    9.4121  -12.6296    0.0000 C   0  0  0  0  0  0  0  0  0  0  0  0
   10.7111  -13.3796    0.0000 C   0  0  0  0  0  0  0  0  0  0  0  0
   10.3993  -14.8469    0.0000 C   0  0  0  0  0  0  0  0  0  0  0  0
    8.9075  -15.0037    0.0000 O   0  0  0  0  0  0  0  0  0  0  0  0
    8.2974  -13.6333    0.0000 N   0  0  0  0  0  0  0  0  0  0  0  0
    3.3037   -4.2221    0.0000 C   0  0  0  0  0  0  0  0  0  0  0  0
    2.0046   -4.9721    0.0000 N   0  0  0  0  0  0  0  0  0  0  0  0
    0.8899   -3.9684    0.0000 C   0  0  0  0  0  0  0  0  0  0  0  0
    1.5000   -2.5981    0.0000 C   0  0  0  0  0  0  0  0  0  0  0  0
    0.7500   -1.2990    0.0000 C   0  0  0  0  0  0  0  0  0  0  0  0
    1.5000    0.0000    0.0000 C   0  0  0  0  0  0  0  0  0  0  0  0
    0.7500    1.2990    0.0000 C   0  0  0  0  0  0  0  0  0  0  0  0
   -0.7500    1.2990    0.0000 C   0  0  0  0  0  0  0  0  0  0  0  0
   -1.5000    0.0000    0.0000 C   0  0  0  0  0  0  0  0  0  0  0  0
   -0.7500   -1.2990    0.0000 C   0  0  0  0  0  0  0  0  0  0  0  0
   -1.5000   -2.5981    0.0000 F   0  0  0  0  0  0  0  0  0  0  0  0
    2.9918   -2.7549    0.0000 O   0  0  0  0  0  0  0  0  0  0  0  0
    8.7060   -2.1974    0.0000 C   0  0  0  0  0  0  0  0  0  0  0  0
  1  2  1  0
  2  3  1  0
  3  4  1  0
  4  5  1  0
  5  6  2  0
  5  7  1  0
  7  8  1  0
  8  9  1  0
  9 10  1  0
 10 11  1  0
 11 12  1  0
 12 13  1  0
 13 14  1  0
 14 15  2  0
 14 16  1  0
 16 17  1  0
 17 18  2  0
 18 19  1  0
 19 20  1  0
  8 21  1  0
 21 22  2  0
 22 23  1  0
 23 24  2  0
 24 25  1  0
 25 26  2  0
 26 27  1  0
 27 28  2  0
 28 29  1  0
 29 30  2  0
 30 31  1  0
 24 32  1  0
  4 33  1  0
 33  2  1  0
 20 16  2  0
 32 21  1  0
 30 25  1  0
M  END
>  <molecule_chembl_id>  (1280) 
CHEMBL4634501

>  <canonical_smiles>  (1280) 
CN1CC(C(=O)NC(CCCCCC(=O)c2ccon2)c2ncc(-c3ccccc3F)o2)C1

>  <pchembl_value_mean>  (1280) 
9.09

>  <document_chembl_id>  (1280) 
CHEMBL4622967

$$$$

     RDKit          2D

 34 37  0  0  0  0  0  0  0  0999 V2000
   11.4030  -15.9616    0.0000 C   0  0  0  0  0  0  0  0  0  0  0  0
   10.3993  -14.8469    0.0000 C   0  0  0  0  0  0  0  0  0  0  0  0
   10.7111  -13.3796    0.0000 C   0  0  0  0  0  0  0  0  0  0  0  0
    9.4121  -12.6296    0.0000 C   0  0  0  0  0  0  0  0  0  0  0  0
    9.2553  -11.1379    0.0000 C   0  0  0  0  0  0  0  0  0  0  0  0
   10.4688  -10.2562    0.0000 O   0  0  0  0  0  0  0  0  0  0  0  0
    7.8850  -10.5278    0.0000 C   0  0  0  0  0  0  0  0  0  0  0  0
    7.7282   -9.0360    0.0000 C   0  0  0  0  0  0  0  0  0  0  0  0
    6.3579   -8.4259    0.0000 C   0  0  0  0  0  0  0  0  0  0  0  0
    6.2011   -6.9341    0.0000 C   0  0  0  0  0  0  0  0  0  0  0  0
    4.8308   -6.3240    0.0000 C   0  0  0  0  0  0  0  0  0  0  0  0
    4.6740   -4.8322    0.0000 C   0  0  0  0  0  0  0  0  0  0  0  0
    5.8875   -3.9505    0.0000 N   0  0  0  0  0  0  0  0  0  0  0  0
    7.2578   -4.5606    0.0000 C   0  0  0  0  0  0  0  0  0  0  0  0
    7.4146   -6.0524    0.0000 O   0  0  0  0  0  0  0  0  0  0  0  0
    8.4713   -3.6789    0.0000 C   0  0  0  0  0  0  0  0  0  0  0  0
    9.9529   -3.9136    0.0000 C   0  0  0  0  0  0  0  0  0  0  0  0
   10.1875   -2.4321    0.0000 N   0  0  0  0  0  0  0  0  0  0  0  0
   11.4010   -1.5504    0.0000 C   0  0  0  0  0  0  0  0  0  0  0  0
    8.7060   -2.1974    0.0000 C   0  0  0  0  0  0  0  0  0  0  0  0
    3.3037   -4.2221    0.0000 C   0  0  0  0  0  0  0  0  0  0  0  0
    2.0046   -4.9721    0.0000 N   0  0  0  0  0  0  0  0  0  0  0  0
    0.8899   -3.9684    0.0000 C   0  0  0  0  0  0  0  0  0  0  0  0
    1.5000   -2.5981    0.0000 C   0  0  0  0  0  0  0  0  0  0  0  0
    0.7500   -1.2990    0.0000 C   0  0  0  0  0  0  0  0  0  0  0  0
    1.5000    0.0000    0.0000 C   0  0  0  0  0  0  0  0  0  0  0  0
    0.7500    1.2990    0.0000 C   0  0  0  0  0  0  0  0  0  0  0  0
   -0.7500    1.2990    0.0000 C   0  0  0  0  0  0  0  0  0  0  0  0
   -1.5000    0.0000    0.0000 C   0  0  0  0  0  0  0  0  0  0  0  0
   -0.7500   -1.2990    0.0000 C   0  0  0  0  0  0  0  0  0  0  0  0
   -1.5000   -2.5981    0.0000 F   0  0  0  0  0  0  0  0  0  0  0  0
    2.9918   -2.7549    0.0000 N   0  0  0  0  0  0  0  0  0  0  0  0
    8.2974  -13.6333    0.0000 N   0  0  0  0  0  0  0  0  0  0  0  0
    8.9075  -15.0037    0.0000 O   0  0  0  0  0  0  0  0  0  0  0  0
  1  2  1  0
  2  3  2  0
  3  4  1  0
  4  5  1  0
  5  6  2  0
  5  7  1  0
  7  8  1  0
  8  9  1  0
  9 10  1  0
 10 11  1  0
 11 12  1  0
 12 13  1  0
 13 14  1  0
 14 15  2  0
 14 16  1  0
 16 17  1  0
 17 18  1  0
 18 19  1  0
 18 20  1  0
 12 21  1  0
 21 22  2  0
 22 23  1  0
 23 24  2  0
 24 25  1  0
 25 26  2  0
 26 27  1  0
 27 28  2  0
 28 29  1  0
 29 30  2  0
 30 31  1  0
 24 32  1  0
  4 33  2  0
 33 34  1  0
 34  2  1  0
 20 16  1  0
 32 21  1  0
 30 25  1  0
M  END
>  <molecule_chembl_id>  (1281) 
CHEMBL4637689

>  <canonical_smiles>  (1281) 
Cc1cc(C(=O)CCCCCC(NC(=O)C2CN(C)C2)c2ncc(-c3ccccc3F)[nH]2)no1

>  <pchembl_value_mean>  (1281) 
9.12

>  <document_chembl_id>  (1281) 
CHEMBL4622967

$$$$

     RDKit          2D

 43 48  0  0  0  0  0  0  0  0999 V2000
   10.7824  -15.8378    0.0000 C   0  0  0  0  0  0  0  0  0  0  0  0
    9.4121  -15.2277    0.0000 C   0  0  0  0  0  0  0  0  0  0  0  0
    9.2553  -13.7359    0.0000 C   0  0  0  0  0  0  0  0  0  0  0  0
   10.4688  -12.8543    0.0000 O   0  0  0  0  0  0  0  0  0  0  0  0
    7.8850  -13.1258    0.0000 C   0  0  0  0  0  0  0  0  0  0  0  0
    7.7282  -11.6340    0.0000 C   0  0  0  0  0  0  0  0  0  0  0  0
    6.3579  -11.0239    0.0000 C   0  0  0  0  0  0  0  0  0  0  0  0
    6.2011   -9.5322    0.0000 C   0  0  0  0  0  0  0  0  0  0  0  0
    4.8308   -8.9221    0.0000 C   0  0  0  0  0  0  0  0  0  0  0  0
    4.6740   -7.4303    0.0000 C   0  0  0  0  0  0  0  0  0  0  0  0
    5.8875   -6.5486    0.0000 N   0  0  0  0  0  0  0  0  0  0  0  0
    7.2578   -7.1587    0.0000 C   0  0  0  0  0  0  0  0  0  0  0  0
    7.4146   -8.6505    0.0000 O   0  0  0  0  0  0  0  0  0  0  0  0
    8.4713   -6.2770    0.0000 C   0  0  0  0  0  0  0  0  0  0  0  0
    9.0814   -4.9067    0.0000 C   0  0  0  0  0  0  0  0  0  0  0  0
    9.9631   -6.1202    0.0000 C   0  0  0  0  0  0  0  0  0  0  0  0
   10.1199   -7.6120    0.0000 C   0  0  0  0  0  0  0  0  0  0  0  0
   11.4902   -8.2221    0.0000 C   0  0  0  0  0  0  0  0  0  0  0  0
   12.7038   -7.3404    0.0000 N   0  0  0  0  0  0  0  0  0  0  0  0
   14.0741   -7.9505    0.0000 C   0  0  0  0  0  0  0  0  0  0  0  0
   14.2309   -9.4423    0.0000 C   0  0  0  0  0  0  0  0  0  0  0  0
   15.1125  -10.6559    0.0000 C   0  0  0  0  0  0  0  0  0  0  0  0
   13.6208  -10.8126    0.0000 C   0  0  0  0  0  0  0  0  0  0  0  0
   12.5470   -5.8487    0.0000 C   0  0  0  0  0  0  0  0  0  0  0  0
   11.1766   -5.2386    0.0000 C   0  0  0  0  0  0  0  0  0  0  0  0
    3.3037   -6.8202    0.0000 C   0  0  0  0  0  0  0  0  0  0  0  0
    2.0046   -7.5702    0.0000 N   0  0  0  0  0  0  0  0  0  0  0  0
    0.8899   -6.5665    0.0000 C   0  0  0  0  0  0  0  0  0  0  0  0
    1.5000   -5.1962    0.0000 C   0  0  0  0  0  0  0  0  0  0  0  0
    0.7500   -3.8971    0.0000 C   0  0  0  0  0  0  0  0  0  0  0  0
    1.5000   -2.5981    0.0000 C   0  0  0  0  0  0  0  0  0  0  0  0
    0.7500   -1.2990    0.0000 C   0  0  0  0  0  0  0  0  0  0  0  0
    1.5000    0.0000    0.0000 C   0  0  0  0  0  0  0  0  0  0  0  0
    0.7500    1.2990    0.0000 C   0  0  0  0  0  0  0  0  0  0  0  0
   -0.7500    1.2990    0.0000 C   0  0  0  0  0  0  0  0  0  0  0  0
   -1.5000    2.5981    0.0000 C   0  0  0  0  0  0  0  0  0  0  0  0
   -1.5000    0.0000    0.0000 N   0  0  0  0  0  0  0  0  0  0  0  0
   -0.7500   -1.2990    0.0000 C   0  0  0  0  0  0  0  0  0  0  0  0
   -1.5000   -2.5981    0.0000 C   0  0  0  0  0  0  0  0  0  0  0  0
   -0.7500   -3.8971    0.0000 C   0  0  0  0  0  0  0  0  0  0  0  0
   -1.5000   -5.1962    0.0000 O   0  0  0  0  0  0  0  0  0  0  0  0
   -3.0000   -5.1962    0.0000 C   0  0  0  0  0  0  0  0  0  0  0  0
    2.9918   -5.3529    0.0000 O   0  0  0  0  0  0  0  0  0  0  0  0
  1  2  1  0
  2  3  1  0
  3  4  2  0
  3  5  1  0
  5  6  1  0
  6  7  1  0
  7  8  1  0
  8  9  1  0
  9 10  1  0
 10 11  1  0
 11 12  1  0
 12 13  2  0
 12 14  1  0
 14 15  1  0
 15 16  1  0
 16 17  1  0
 17 18  1  0
 18 19  1  0
 19 20  1  0
 20 21  1  0
 21 22  1  0
 22 23  1  0
 19 24  1  0
 24 25  1  0
 10 26  1  0
 26 27  2  0
 27 28  1  0
 28 29  2  0
 29 30  1  0
 30 31  2  0
 31 32  1  0
 32 33  2  0
 33 34  1  0
 34 35  2  0
 35 36  1  0
 35 37  1  0
 37 38  2  0
 38 39  1  0
 39 40  2  0
 40 41  1  0
 41 42  1  0
 29 43  1  0
 16 14  1  0
 23 21  1  0
 43 26  1  0
 25 16  1  0
 40 30  1  0
 38 32  1  0
M  END
>  <molecule_chembl_id>  (1282) 
CHEMBL4862152

>  <canonical_smiles>  (1282) 
CCC(=O)CCCCCC(NC(=O)C1CC12CCN(CC1CC1)CC2)c1ncc(-c2cc3ccc(C)nc3cc2OC)o1

>  <pchembl_value_mean>  (1282) 
9.15

>  <document_chembl_id>  (1282) 
CHEMBL4825740

$$$$

     RDKit          2D

 42 47  0  0  0  0  0  0  0  0999 V2000
   10.7824  -15.8378    0.0000 C   0  0  0  0  0  0  0  0  0  0  0  0
    9.4121  -15.2277    0.0000 C   0  0  0  0  0  0  0  0  0  0  0  0
    9.2553  -13.7359    0.0000 C   0  0  0  0  0  0  0  0  0  0  0  0
   10.4688  -12.8543    0.0000 O   0  0  0  0  0  0  0  0  0  0  0  0
    7.8850  -13.1258    0.0000 C   0  0  0  0  0  0  0  0  0  0  0  0
    7.7282  -11.6340    0.0000 C   0  0  0  0  0  0  0  0  0  0  0  0
    6.3579  -11.0239    0.0000 C   0  0  0  0  0  0  0  0  0  0  0  0
    6.2011   -9.5322    0.0000 C   0  0  0  0  0  0  0  0  0  0  0  0
    4.8308   -8.9221    0.0000 C   0  0  0  0  0  0  0  0  0  0  0  0
    4.6740   -7.4303    0.0000 C   0  0  0  0  0  0  0  0  0  0  0  0
    5.8875   -6.5486    0.0000 N   0  0  0  0  0  0  0  0  0  0  0  0
    7.2578   -7.1587    0.0000 C   0  0  0  0  0  0  0  0  0  0  0  0
    7.4146   -8.6505    0.0000 O   0  0  0  0  0  0  0  0  0  0  0  0
    8.4713   -6.2770    0.0000 C   0  0  0  0  0  0  0  0  0  0  0  0
    9.0814   -4.9067    0.0000 C   0  0  0  0  0  0  0  0  0  0  0  0
    9.9631   -6.1202    0.0000 C   0  0  0  0  0  0  0  0  0  0  0  0
   10.1199   -7.6120    0.0000 C   0  0  0  0  0  0  0  0  0  0  0  0
   11.4902   -8.2221    0.0000 C   0  0  0  0  0  0  0  0  0  0  0  0
   12.7038   -7.3404    0.0000 N   0  0  0  0  0  0  0  0  0  0  0  0
   14.0741   -7.9505    0.0000 C   0  0  0  0  0  0  0  0  0  0  0  0
   14.2309   -9.4423    0.0000 C   0  0  0  0  0  0  0  0  0  0  0  0
   15.1125  -10.6559    0.0000 C   0  0  0  0  0  0  0  0  0  0  0  0
   13.6208  -10.8126    0.0000 C   0  0  0  0  0  0  0  0  0  0  0  0
   12.5470   -5.8487    0.0000 C   0  0  0  0  0  0  0  0  0  0  0  0
   11.1766   -5.2386    0.0000 C   0  0  0  0  0  0  0  0  0  0  0  0
    3.3037   -6.8202    0.0000 C   0  0  0  0  0  0  0  0  0  0  0  0
    2.0046   -7.5702    0.0000 N   0  0  0  0  0  0  0  0  0  0  0  0
    0.8899   -6.5665    0.0000 C   0  0  0  0  0  0  0  0  0  0  0  0
    1.5000   -5.1962    0.0000 C   0  0  0  0  0  0  0  0  0  0  0  0
    0.7500   -3.8971    0.0000 C   0  0  0  0  0  0  0  0  0  0  0  0
    1.5000   -2.5981    0.0000 C   0  0  0  0  0  0  0  0  0  0  0  0
    0.7500   -1.2990    0.0000 C   0  0  0  0  0  0  0  0  0  0  0  0
    1.5000    0.0000    0.0000 C   0  0  0  0  0  0  0  0  0  0  0  0
    0.7500    1.2990    0.0000 C   0  0  0  0  0  0  0  0  0  0  0  0
   -0.7500    1.2990    0.0000 C   0  0  0  0  0  0  0  0  0  0  0  0
   -1.5000    0.0000    0.0000 C   0  0  0  0  0  0  0  0  0  0  0  0
   -0.7500   -1.2990    0.0000 C   0  0  0  0  0  0  0  0  0  0  0  0
   -1.5000   -2.5981    0.0000 N   0  0  0  0  0  0  0  0  0  0  0  0
   -0.7500   -3.8971    0.0000 C   0  0  0  0  0  0  0  0  0  0  0  0
   -1.5000   -5.1962    0.0000 O   0  0  0  0  0  0  0  0  0  0  0  0
   -3.0000   -5.1962    0.0000 C   0  0  0  0  0  0  0  0  0  0  0  0
    2.9918   -5.3529    0.0000 N   0  0  0  0  0  0  0  0  0  0  0  0
  1  2  1  0
  2  3  1  0
  3  4  2  0
  3  5  1  0
  5  6  1  0
  6  7  1  0
  7  8  1  0
  8  9  1  0
  9 10  1  0
 10 11  1  0
 11 12  1  0
 12 13  2  0
 12 14  1  0
 14 15  1  0
 15 16  1  0
 16 17  1  0
 17 18  1  0
 18 19  1  0
 19 20  1  0
 20 21  1  0
 21 22  1  0
 22 23  1  0
 19 24  1  0
 24 25  1  0
 10 26  1  0
 26 27  2  0
 27 28  1  0
 28 29  2  0
 29 30  1  0
 30 31  2  0
 31 32  1  0
 32 33  2  0
 33 34  1  0
 34 35  2  0
 35 36  1  0
 36 37  2  0
 37 38  1  0
 38 39  2  0
 39 40  1  0
 40 41  1  0
 29 42  1  0
 16 14  1  0
 23 21  1  0
 42 26  1  0
 25 16  1  0
 39 30  1  0
 37 32  1  0
M  END
>  <molecule_chembl_id>  (1283) 
CHEMBL4649205

>  <canonical_smiles>  (1283) 
CCC(=O)CCCCCC(NC(=O)C1CC12CCN(CC1CC1)CC2)c1ncc(-c2cc3ccccc3nc2OC)[nH]1

>  <pchembl_value_mean>  (1283) 
9.16

>  <document_chembl_id>  (1283) 
CHEMBL4622849

$$$$

     RDKit          2D

 41 45  0  0  0  0  0  0  0  0999 V2000
   -7.5878   13.6448    0.0000 C   0  0  0  0  0  0  0  0  0  0  0  0
   -7.8997   12.1775    0.0000 C   0  0  0  0  0  0  0  0  0  0  0  0
   -6.7850   11.1738    0.0000 C   0  0  0  0  0  0  0  0  0  0  0  0
   -7.0969    9.7066    0.0000 N   0  0  0  0  0  0  0  0  0  0  0  0
   -5.9821    8.7029    0.0000 C   0  0  0  0  0  0  0  0  0  0  0  0
   -4.5556    9.1664    0.0000 O   0  0  0  0  0  0  0  0  0  0  0  0
   -6.2940    7.2357    0.0000 N   0  0  0  0  0  0  0  0  0  0  0  0
   -5.1793    6.2320    0.0000 C   0  0  0  0  0  0  0  0  0  0  0  0
   -5.4912    4.7648    0.0000 C   0  0  0  0  0  0  0  0  0  0  0  0
   -4.3764    3.7611    0.0000 C   0  0  0  0  0  0  0  0  0  0  0  0
   -2.9499    4.2246    0.0000 C   0  0  0  0  0  0  0  0  0  0  0  0
   -1.8351    3.2209    0.0000 C   0  0  0  0  0  0  0  0  0  0  0  0
   -0.4086    3.6844    0.0000 N   0  0  0  0  0  0  0  0  0  0  0  0
    0.7062    2.6807    0.0000 C   0  0  0  0  0  0  0  0  0  0  0  0
    2.1328    3.1443    0.0000 N   0  0  0  0  0  0  0  0  0  0  0  0
    3.2475    2.1406    0.0000 C   0  0  0  0  0  0  0  0  0  0  0  0
    4.6741    2.6041    0.0000 C   0  0  0  0  0  0  0  0  0  0  0  0
    4.9859    4.0713    0.0000 O   0  0  0  0  0  0  0  0  0  0  0  0
    3.8712    5.0750    0.0000 C   0  0  0  0  0  0  0  0  0  0  0  0
    2.4446    4.6115    0.0000 C   0  0  0  0  0  0  0  0  0  0  0  0
    0.3943    1.2135    0.0000 C   0  0  0  0  0  0  0  0  0  0  0  0
    1.2760    0.0000    0.0000 C   0  0  0  0  0  0  0  0  0  0  0  0
    0.3943   -1.2135    0.0000 N   0  0  0  0  0  0  0  0  0  0  0  0
   -1.0323   -0.7500    0.0000 N   0  0  0  0  0  0  0  0  0  0  0  0
   -2.2458   -1.6317    0.0000 C   0  0  0  0  0  0  0  0  0  0  0  0
   -2.0890   -3.1235    0.0000 C   0  0  0  0  0  0  0  0  0  0  0  0
   -3.3025   -4.0051    0.0000 C   0  0  0  0  0  0  0  0  0  0  0  0
   -3.1458   -5.4969    0.0000 C   0  0  0  0  0  0  0  0  0  0  0  0
   -4.3593   -6.3786    0.0000 C   0  0  0  0  0  0  0  0  0  0  0  0
   -4.2025   -7.8704    0.0000 C   0  0  0  0  0  0  0  0  0  0  0  0
   -5.4160   -8.7521    0.0000 C   0  0  0  0  0  0  0  0  0  0  0  0
   -6.7863   -8.1420    0.0000 O   0  0  0  0  0  0  0  0  0  0  0  0
   -5.2592  -10.2438    0.0000 N   0  0  0  0  0  0  0  0  0  0  0  0
   -6.4727  -11.1255    0.0000 O   0  0  0  0  0  0  0  0  0  0  0  0
   -1.0323    0.7500    0.0000 C   0  0  0  0  0  0  0  0  0  0  0  0
   -2.1470    1.7537    0.0000 N   0  0  0  0  0  0  0  0  0  0  0  0
   -2.6380    5.6918    0.0000 C   0  0  0  0  0  0  0  0  0  0  0  0
   -3.7527    6.6955    0.0000 C   0  0  0  0  0  0  0  0  0  0  0  0
   -8.5234    9.2431    0.0000 C   0  0  0  0  0  0  0  0  0  0  0  0
   -9.6382   10.2468    0.0000 C   0  0  0  0  0  0  0  0  0  0  0  0
   -9.3263   11.7140    0.0000 O   0  0  0  0  0  0  0  0  0  0  0  0
  1  2  1  0
  2  3  1  0
  3  4  1  0
  4  5  1  0
  5  6  2  0
  5  7  1  0
  7  8  1  0
  8  9  2  0
  9 10  1  0
 10 11  2  0
 11 12  1  0
 12 13  2  0
 13 14  1  0
 14 15  1  0
 15 16  1  0
 16 17  1  0
 17 18  1  0
 18 19  1  0
 19 20  1  0
 14 21  2  0
 21 22  1  0
 22 23  2  0
 23 24  1  0
 24 25  1  0
 25 26  1  0
 26 27  1  0
 27 28  1  0
 28 29  1  0
 29 30  1  0
 30 31  1  0
 31 32  2  0
 31 33  1  0
 33 34  1  0
 24 35  1  0
 35 36  2  0
 11 37  1  0
 37 38  2  0
  4 39  1  0
 39 40  1  0
 40 41  1  0
 41  2  1  0
 38  8  1  0
 36 12  1  0
 20 15  1  0
 35 21  1  0
M  END
>  <molecule_chembl_id>  (1284) 
CHEMBL4532398

>  <canonical_smiles>  (1284) 
CC1CN(C(=O)Nc2ccc(-c3nc(N4CCOCC4)c4cnn(CCCCCCC(=O)NO)c4n3)cc2)CCO1

>  <pchembl_value_mean>  (1284) 
9.21

>  <document_chembl_id>  (1284) 
CHEMBL4411315

$$$$

     RDKit          2D

 64 69  0  0  0  0  0  0  0  0999 V2000
    1.5922    6.6948    0.0000 C   0  0  0  0  0  0  0  0  0  0  0  0
    0.1004    6.8516    0.0000 C   0  0  0  0  0  0  0  0  0  0  0  0
   -0.5097    8.2219    0.0000 C   0  0  0  0  0  0  0  0  0  0  0  0
   -0.7813    5.6380    0.0000 C   0  0  0  0  0  0  0  0  0  0  0  0
    0.2369    4.5365    0.0000 N   0  0  0  0  0  0  0  0  0  0  0  0
    0.7561    3.1293    0.0000 C   0  0  0  0  0  0  0  0  0  0  0  0
    2.2376    3.3639    0.0000 O   0  0  0  0  0  0  0  0  0  0  0  0
    0.3943    1.2135    0.0000 C   0  0  0  0  0  0  0  0  0  0  0  0
    0.4790    2.4256    0.0000 C   0  0  0  0  0  0  0  0  0  0  0  0
    1.2760    0.0000    0.0000 C   0  0  0  0  0  0  0  0  0  0  0  0
    0.3943   -1.2135    0.0000 S   0  0  0  0  0  0  0  0  0  0  0  0
   -1.0323   -0.7500    0.0000 C   0  0  0  0  0  0  0  0  0  0  0  0
   -1.0323    0.7500    0.0000 N   0  0  0  0  0  0  0  0  0  0  0  0
   -2.4396   -1.2692    0.0000 C   0  0  0  0  0  0  0  0  0  0  0  0
   -3.2233   -2.5481    0.0000 C   0  0  0  0  0  0  0  0  0  0  0  0
   -4.6819   -2.1980    0.0000 S   0  0  0  0  0  0  0  0  0  0  0  0
   -5.3006   -0.5823    0.0000 C   0  0  0  0  0  0  0  0  0  0  0  0
   -3.9384   -1.2103    0.0000 N   0  0  0  0  0  0  0  0  0  0  0  0
   -6.3188    0.5192    0.0000 C   0  0  0  0  0  0  0  0  0  0  0  0
   -6.8380    1.9265    0.0000 N   0  0  0  0  0  0  0  0  0  0  0  0
   -6.7791    3.4253    0.0000 C   0  0  0  0  0  0  0  0  0  0  0  0
   -8.2377    3.7755    0.0000 O   0  0  0  0  0  0  0  0  0  0  0  0
   -6.1511    4.7875    0.0000 C   0  0  0  0  0  0  0  0  0  0  0  0
   -5.0496    5.8057    0.0000 C   0  0  0  0  0  0  0  0  0  0  0  0
   -5.8334    7.0847    0.0000 C   0  0  0  0  0  0  0  0  0  0  0  0
   -5.1177    8.4029    0.0000 C   0  0  0  0  0  0  0  0  0  0  0  0
   -5.9014    9.6819    0.0000 C   0  0  0  0  0  0  0  0  0  0  0  0
   -5.1857   11.0001    0.0000 C   0  0  0  0  0  0  0  0  0  0  0  0
   -5.9694   12.2791    0.0000 S   0  0  0  0  0  0  0  0  0  0  0  0
   -5.2537   13.5973    0.0000 S   0  0  0  0  0  0  0  0  0  0  0  0
   -6.0374   14.8763    0.0000 C   0  0  0  0  0  0  0  0  0  0  0  0
   -5.3217   16.1945    0.0000 C   0  0  0  0  0  0  0  0  0  0  0  0
   -6.1054   17.4734    0.0000 C   0  0  0  0  0  0  0  0  0  0  0  0
   -5.3897   18.7917    0.0000 C   0  0  0  0  0  0  0  0  0  0  0  0
   -6.1734   20.0706    0.0000 C   0  0  0  0  0  0  0  0  0  0  0  0
   -5.0720   21.0888    0.0000 C   0  0  0  0  0  0  0  0  0  0  0  0
   -4.4440   22.4510    0.0000 C   0  0  0  0  0  0  0  0  0  0  0  0
   -2.9854   22.1009    0.0000 O   0  0  0  0  0  0  0  0  0  0  0  0
   -4.3851   23.9499    0.0000 N   0  0  0  0  0  0  0  0  0  0  0  0
   -4.9043   25.3572    0.0000 C   0  0  0  0  0  0  0  0  0  0  0  0
   -5.9225   26.4587    0.0000 C   0  0  0  0  0  0  0  0  0  0  0  0
   -7.3083   25.8846    0.0000 N   0  0  0  0  0  0  0  0  0  0  0  0
   -8.2824   27.0252    0.0000 C   0  0  0  0  0  0  0  0  0  0  0  0
   -7.4987   28.3042    0.0000 C   0  0  0  0  0  0  0  0  0  0  0  0
   -6.0401   27.9540    0.0000 S   0  0  0  0  0  0  0  0  0  0  0  0
  -10.1908   26.6264    0.0000 C   0  0  0  0  0  0  0  0  0  0  0  0
  -11.2923   25.6082    0.0000 N   0  0  0  0  0  0  0  0  0  0  0  0
  -11.9203   24.2459    0.0000 C   0  0  0  0  0  0  0  0  0  0  0  0
  -13.3788   24.5961    0.0000 C   0  0  0  0  0  0  0  0  0  0  0  0
  -12.8020   25.4595    0.0000 C   0  0  0  0  0  0  0  0  0  0  0  0
  -11.9203   26.6730    0.0000 S   0  0  0  0  0  0  0  0  0  0  0  0
  -11.9792   22.7471    0.0000 C   0  0  0  0  0  0  0  0  0  0  0  0
  -13.4607   22.5124    0.0000 O   0  0  0  0  0  0  0  0  0  0  0  0
  -11.4600   21.3398    0.0000 N   0  0  0  0  0  0  0  0  0  0  0  0
  -10.4418   20.2383    0.0000 C   0  0  0  0  0  0  0  0  0  0  0  0
  -11.3235   19.0248    0.0000 C   0  0  0  0  0  0  0  0  0  0  0  0
  -12.8152   19.1816    0.0000 C   0  0  0  0  0  0  0  0  0  0  0  0
  -10.7134   17.6545    0.0000 C   0  0  0  0  0  0  0  0  0  0  0  0
   -9.0796   19.6103    0.0000 C   0  0  0  0  0  0  0  0  0  0  0  0
   -9.4297   18.1518    0.0000 O   0  0  0  0  0  0  0  0  0  0  0  0
   -7.5807   19.5514    0.0000 O   0  0  0  0  0  0  0  0  0  0  0  0
   -3.6424    6.3249    0.0000 O   0  0  0  0  0  0  0  0  0  0  0  0
   -2.1435    6.2660    0.0000 C   0  0  0  0  0  0  0  0  0  0  0  0
   -1.7933    7.7246    0.0000 O   0  0  0  0  0  0  0  0  0  0  0  0
  1  2  1  0
  2  3  1  0
  2  4  1  0
  4  5  1  0
  5  6  1  0
  6  7  2  0
  6  8  1  0
  8  9  1  0
  8 10  1  0
 10 11  1  0
 11 12  1  0
 12 13  2  0
 12 14  1  0
 14 15  2  0
 15 16  1  0
 16 17  1  0
 17 18  2  0
 17 19  1  0
 19 20  1  0
 20 21  1  0
 21 22  2  0
 21 23  1  0
 23 24  1  0
 24 25  1  0
 25 26  2  3
 26 27  1  0
 27 28  1  0
 28 29  1  0
 29 30  1  0
 30 31  1  0
 31 32  1  0
 32 33  1  0
 33 34  2  3
 34 35  1  0
 35 36  1  0
 36 37  1  0
 37 38  2  0
 37 39  1  0
 39 40  1  0
 40 41  1  0
 41 42  2  0
 42 43  1  0
 43 44  2  0
 44 45  1  0
 43 46  1  0
 46 47  2  0
 47 48  1  0
 48 49  1  0
 48 50  1  0
 50 51  1  0
 48 52  1  0
 52 53  2  0
 52 54  1  0
 54 55  1  0
 55 56  1  0
 56 57  1  0
 56 58  1  0
 55 59  1  0
 59 60  2  0
 59 61  1  0
 24 62  1  0
 62 63  1  0
 63 64  2  0
 63  4  1  0
 13  8  1  0
 18 14  1  0
 61 35  1  0
 45 41  1  0
 51 46  1  0
M  END
>  <molecule_chembl_id>  (1285) 
CHEMBL3329621

>  <canonical_smiles>  (1285) 
CC(C)C1NC(=O)C2(C)CSC(=N2)c2csc(n2)CNC(=O)CC(C=CCCSSCCC=CC2CC(=O)NCc3nc(cs3)C3=NC(C)(CS3)C(=O)NC(C(C)C)C(=O)O2)OC1=O

>  <pchembl_value_mean>  (1285) 
9.3

>  <document_chembl_id>  (1285) 
CHEMBL3352121

$$$$

     RDKit          2D

 33 36  0  0  0  0  0  0  0  0999 V2000
   11.4010   -1.5504    0.0000 C   0  0  0  0  0  0  0  0  0  0  0  0
   10.1875   -2.4321    0.0000 N   0  0  0  0  0  0  0  0  0  0  0  0
    9.9529   -3.9136    0.0000 C   0  0  0  0  0  0  0  0  0  0  0  0
    8.4713   -3.6789    0.0000 C   0  0  0  0  0  0  0  0  0  0  0  0
    7.2578   -4.5606    0.0000 C   0  0  0  0  0  0  0  0  0  0  0  0
    7.4146   -6.0524    0.0000 O   0  0  0  0  0  0  0  0  0  0  0  0
    5.8875   -3.9505    0.0000 N   0  0  0  0  0  0  0  0  0  0  0  0
    4.6740   -4.8322    0.0000 C   0  0  0  0  0  0  0  0  0  0  0  0
    4.8308   -6.3240    0.0000 C   0  0  0  0  0  0  0  0  0  0  0  0
    6.2011   -6.9341    0.0000 C   0  0  0  0  0  0  0  0  0  0  0  0
    6.3579   -8.4259    0.0000 C   0  0  0  0  0  0  0  0  0  0  0  0
    7.7282   -9.0360    0.0000 C   0  0  0  0  0  0  0  0  0  0  0  0
    7.8850  -10.5278    0.0000 C   0  0  0  0  0  0  0  0  0  0  0  0
    9.2553  -11.1379    0.0000 C   0  0  0  0  0  0  0  0  0  0  0  0
   10.4688  -10.2562    0.0000 O   0  0  0  0  0  0  0  0  0  0  0  0
    9.4121  -12.6296    0.0000 C   0  0  0  0  0  0  0  0  0  0  0  0
   10.7111  -13.3796    0.0000 C   0  0  0  0  0  0  0  0  0  0  0  0
   10.3993  -14.8469    0.0000 C   0  0  0  0  0  0  0  0  0  0  0  0
    8.9075  -15.0037    0.0000 O   0  0  0  0  0  0  0  0  0  0  0  0
    8.2974  -13.6333    0.0000 N   0  0  0  0  0  0  0  0  0  0  0  0
    3.3037   -4.2221    0.0000 C   0  0  0  0  0  0  0  0  0  0  0  0
    2.0046   -4.9721    0.0000 N   0  0  0  0  0  0  0  0  0  0  0  0
    0.8899   -3.9684    0.0000 C   0  0  0  0  0  0  0  0  0  0  0  0
    1.5000   -2.5981    0.0000 C   0  0  0  0  0  0  0  0  0  0  0  0
    0.7500   -1.2990    0.0000 C   0  0  0  0  0  0  0  0  0  0  0  0
    1.5000    0.0000    0.0000 C   0  0  0  0  0  0  0  0  0  0  0  0
    0.7500    1.2990    0.0000 C   0  0  0  0  0  0  0  0  0  0  0  0
   -0.7500    1.2990    0.0000 C   0  0  0  0  0  0  0  0  0  0  0  0
   -1.5000    0.0000    0.0000 C   0  0  0  0  0  0  0  0  0  0  0  0
   -0.7500   -1.2990    0.0000 C   0  0  0  0  0  0  0  0  0  0  0  0
   -1.5000   -2.5981    0.0000 F   0  0  0  0  0  0  0  0  0  0  0  0
    2.9918   -2.7549    0.0000 N   0  0  0  0  0  0  0  0  0  0  0  0
    8.7060   -2.1974    0.0000 C   0  0  0  0  0  0  0  0  0  0  0  0
  1  2  1  0
  2  3  1  0
  3  4  1  0
  4  5  1  0
  5  6  2  0
  5  7  1  0
  7  8  1  0
  8  9  1  0
  9 10  1  0
 10 11  1  0
 11 12  1  0
 12 13  1  0
 13 14  1  0
 14 15  2  0
 14 16  1  0
 16 17  1  0
 17 18  2  0
 18 19  1  0
 19 20  1  0
  8 21  1  0
 21 22  2  0
 22 23  1  0
 23 24  2  0
 24 25  1  0
 25 26  2  0
 26 27  1  0
 27 28  2  0
 28 29  1  0
 29 30  2  0
 30 31  1  0
 24 32  1  0
  4 33  1  0
 33  2  1  0
 20 16  2  0
 32 21  1  0
 30 25  1  0
M  END
>  <molecule_chembl_id>  (1286) 
CHEMBL4641682

>  <canonical_smiles>  (1286) 
CN1CC(C(=O)NC(CCCCCC(=O)c2ccon2)c2ncc(-c3ccccc3F)[nH]2)C1

>  <pchembl_value_mean>  (1286) 
9.33

>  <document_chembl_id>  (1286) 
CHEMBL4622967

$$$$

     RDKit          2D

 45 50  0  0  0  0  0  0  0  0999 V2000
    8.5545  -10.1208    0.0000 C   0  0  0  0  0  0  0  0  0  0  0  0
    7.0811  -10.4019    0.0000 C   0  0  0  0  0  0  0  0  0  0  0  0
    6.1009   -9.2664    0.0000 C   0  0  0  0  0  0  0  0  0  0  0  0
    6.5942   -7.8498    0.0000 O   0  0  0  0  0  0  0  0  0  0  0  0
    4.6275   -9.5474    0.0000 C   0  0  0  0  0  0  0  0  0  0  0  0
    3.6474   -8.4119    0.0000 C   0  0  0  0  0  0  0  0  0  0  0  0
    2.1739   -8.6930    0.0000 C   0  0  0  0  0  0  0  0  0  0  0  0
    1.1938   -7.5575    0.0000 C   0  0  0  0  0  0  0  0  0  0  0  0
   -0.2796   -7.8386    0.0000 C   0  0  0  0  0  0  0  0  0  0  0  0
   -1.2598   -6.7031    0.0000 C   0  0  0  0  0  0  0  0  0  0  0  0
   -0.2561   -5.5884    0.0000 N   0  0  0  0  0  0  0  0  0  0  0  0
    0.4389   -4.2591    0.0000 C   0  0  0  0  0  0  0  0  0  0  0  0
    1.8448   -4.7819    0.0000 O   0  0  0  0  0  0  0  0  0  0  0  0
    0.7814   -2.7987    0.0000 C   0  0  0  0  0  0  0  0  0  0  0  0
    2.0645   -2.0217    0.0000 C   0  0  0  0  0  0  0  0  0  0  0  0
    0.7500   -1.2990    0.0000 C   0  0  0  0  0  0  0  0  0  0  0  0
    1.5000    0.0000    0.0000 C   0  0  0  0  0  0  0  0  0  0  0  0
    0.7500    1.2990    0.0000 C   0  0  0  0  0  0  0  0  0  0  0  0
   -0.7500    1.2990    0.0000 N   0  0  0  0  0  0  0  0  0  0  0  0
   -2.7359    3.2935    0.0000 C   0  0  0  0  0  0  0  0  0  0  0  0
   -4.1719    3.7270    0.0000 C   0  0  0  0  0  0  0  0  0  0  0  0
   -5.6706    3.7899    0.0000 C   0  0  0  0  0  0  0  0  0  0  0  0
   -7.1378    3.4780    0.0000 C   0  0  0  0  0  0  0  0  0  0  0  0
   -8.4814    2.8110    0.0000 C   0  0  0  0  0  0  0  0  0  0  0  0
   -9.6169    1.8309    0.0000 C   0  0  0  0  0  0  0  0  0  0  0  0
  -10.4729    0.5992    0.0000 C   0  0  0  0  0  0  0  0  0  0  0  0
  -10.9958   -0.8067    0.0000 C   0  0  0  0  0  0  0  0  0  0  0  0
  -11.1526   -2.2985    0.0000 N   0  0  0  0  0  0  0  0  0  0  0  0
  -10.9335   -3.7824    0.0000 C   0  0  0  0  0  0  0  0  0  0  0  0
  -10.3522   -5.1652    0.0000 C   0  0  0  0  0  0  0  0  0  0  0  0
   -9.4453   -6.3600    0.0000 C   0  0  0  0  0  0  0  0  0  0  0  0
   -8.2698   -7.2917    0.0000 C   0  0  0  0  0  0  0  0  0  0  0  0
   -6.8994   -7.9019    0.0000 C   0  0  0  0  0  0  0  0  0  0  0  0
   -7.3971   -6.8043    0.0000 C   0  0  0  0  0  0  0  0  0  0  0  0
   -8.4090   -5.6970    0.0000 C   0  0  0  0  0  0  0  0  0  0  0  0
   -9.6644   -4.8761    0.0000 C   0  0  0  0  0  0  0  0  0  0  0  0
  -10.2457   -3.4933    0.0000 C   0  0  0  0  0  0  0  0  0  0  0  0
   -8.9467   -2.7433    0.0000 O   0  0  0  0  0  0  0  0  0  0  0  0
   -5.4204   -8.1520    0.0000 C   0  0  0  0  0  0  0  0  0  0  0  0
   -4.6704   -9.4510    0.0000 C   0  0  0  0  0  0  0  0  0  0  0  0
   -3.2032   -9.1392    0.0000 N   0  0  0  0  0  0  0  0  0  0  0  0
   -2.5091   -7.5332    0.0000 C   0  0  0  0  0  0  0  0  0  0  0  0
   -3.9257   -8.0265    0.0000 N   0  0  0  0  0  0  0  0  0  0  0  0
   -1.5000    0.0000    0.0000 C   0  0  0  0  0  0  0  0  0  0  0  0
   -0.7500   -1.2990    0.0000 C   0  0  0  0  0  0  0  0  0  0  0  0
  1  2  1  0
  2  3  1  0
  3  4  2  0
  3  5  1  0
  5  6  1  0
  6  7  1  0
  7  8  1  0
  8  9  1  0
  9 10  1  0
 10 11  1  0
 11 12  1  0
 12 13  2  0
 12 14  1  0
 14 15  1  0
 15 16  1  0
 16 17  1  0
 17 18  1  0
 18 19  1  0
 19 20  1  0
 20 21  1  0
 21 22  1  0
 22 23  1  0
 23 24  1  0
 24 25  1  0
 25 26  1  0
 26 27  1  0
 27 28  1  0
 28 29  1  0
 29 30  2  0
 30 31  1  0
 31 32  2  0
 32 33  1  0
 33 34  2  0
 34 35  1  0
 35 36  2  0
 36 37  1  0
 37 38  2  0
 33 39  1  0
 39 40  2  0
 40 41  1  0
 41 42  2  0
 42 43  1  0
 19 44  1  0
 44 45  1  0
 42 10  1  0
 16 14  1  0
 37 28  1  0
 43 39  1  0
 45 16  1  0
 36 31  1  0
M  END
>  <molecule_chembl_id>  (1287) 
CHEMBL4860000

>  <canonical_smiles>  (1287) 
CCC(=O)CCCCCC1NC(=O)C2CC23CCN(CCCCCCCCn2ccc4cc(ccc4c2=O)-c2cnc1[nH]2)CC3

>  <pchembl_value_mean>  (1287) 
9.37

>  <document_chembl_id>  (1287) 
CHEMBL4811291

$$$$

     RDKit          2D

 47 52  0  0  0  0  0  0  0  0999 V2000
    8.5545  -10.1208    0.0000 C   0  0  0  0  0  0  0  0  0  0  0  0
    7.0811  -10.4019    0.0000 C   0  0  0  0  0  0  0  0  0  0  0  0
    6.1009   -9.2664    0.0000 C   0  0  0  0  0  0  0  0  0  0  0  0
    6.5942   -7.8498    0.0000 O   0  0  0  0  0  0  0  0  0  0  0  0
    4.6275   -9.5474    0.0000 C   0  0  0  0  0  0  0  0  0  0  0  0
    3.6474   -8.4119    0.0000 C   0  0  0  0  0  0  0  0  0  0  0  0
    2.1739   -8.6930    0.0000 C   0  0  0  0  0  0  0  0  0  0  0  0
    1.1938   -7.5575    0.0000 C   0  0  0  0  0  0  0  0  0  0  0  0
   -0.2796   -7.8386    0.0000 C   0  0  0  0  0  0  0  0  0  0  0  0
   -1.2598   -6.7031    0.0000 C   0  0  0  0  0  0  0  0  0  0  0  0
   -0.2561   -5.5884    0.0000 N   0  0  0  0  0  0  0  0  0  0  0  0
    0.4389   -4.2591    0.0000 C   0  0  0  0  0  0  0  0  0  0  0  0
    1.8448   -4.7819    0.0000 O   0  0  0  0  0  0  0  0  0  0  0  0
    0.7814   -2.7987    0.0000 C   0  0  0  0  0  0  0  0  0  0  0  0
    2.0645   -2.0217    0.0000 C   0  0  0  0  0  0  0  0  0  0  0  0
    0.7500   -1.2990    0.0000 C   0  0  0  0  0  0  0  0  0  0  0  0
    1.5000    0.0000    0.0000 C   0  0  0  0  0  0  0  0  0  0  0  0
    0.7500    1.2990    0.0000 C   0  0  0  0  0  0  0  0  0  0  0  0
   -0.7500    1.2990    0.0000 N   0  0  0  0  0  0  0  0  0  0  0  0
   -2.7359    3.2935    0.0000 C   0  0  0  0  0  0  0  0  0  0  0  0
   -4.1719    3.7270    0.0000 C   0  0  0  0  0  0  0  0  0  0  0  0
   -5.6706    3.7899    0.0000 C   0  0  0  0  0  0  0  0  0  0  0  0
   -7.1378    3.4780    0.0000 C   0  0  0  0  0  0  0  0  0  0  0  0
   -8.4814    2.8110    0.0000 C   0  0  0  0  0  0  0  0  0  0  0  0
   -9.6169    1.8309    0.0000 C   0  0  0  0  0  0  0  0  0  0  0  0
  -10.4729    0.5992    0.0000 C   0  0  0  0  0  0  0  0  0  0  0  0
  -10.9958   -0.8067    0.0000 C   0  0  0  0  0  0  0  0  0  0  0  0
  -11.1526   -2.2985    0.0000 N   0  0  0  0  0  0  0  0  0  0  0  0
  -10.9335   -3.7824    0.0000 C   0  0  0  0  0  0  0  0  0  0  0  0
  -10.3522   -5.1652    0.0000 C   0  0  0  0  0  0  0  0  0  0  0  0
   -9.4453   -6.3600    0.0000 C   0  0  0  0  0  0  0  0  0  0  0  0
   -8.2698   -7.2917    0.0000 C   0  0  0  0  0  0  0  0  0  0  0  0
   -6.8994   -7.9019    0.0000 C   0  0  0  0  0  0  0  0  0  0  0  0
   -7.3971   -6.8043    0.0000 C   0  0  0  0  0  0  0  0  0  0  0  0
   -6.1717   -5.9392    0.0000 O   0  0  0  0  0  0  0  0  0  0  0  0
   -6.3082   -4.4454    0.0000 C   0  0  0  0  0  0  0  0  0  0  0  0
   -8.4090   -5.6970    0.0000 C   0  0  0  0  0  0  0  0  0  0  0  0
   -9.6644   -4.8761    0.0000 C   0  0  0  0  0  0  0  0  0  0  0  0
  -10.2457   -3.4933    0.0000 C   0  0  0  0  0  0  0  0  0  0  0  0
   -8.9467   -2.7433    0.0000 O   0  0  0  0  0  0  0  0  0  0  0  0
   -5.4204   -8.1520    0.0000 C   0  0  0  0  0  0  0  0  0  0  0  0
   -4.6704   -9.4510    0.0000 C   0  0  0  0  0  0  0  0  0  0  0  0
   -3.2032   -9.1392    0.0000 N   0  0  0  0  0  0  0  0  0  0  0  0
   -2.5091   -7.5332    0.0000 C   0  0  0  0  0  0  0  0  0  0  0  0
   -3.9257   -8.0265    0.0000 N   0  0  0  0  0  0  0  0  0  0  0  0
   -1.5000    0.0000    0.0000 C   0  0  0  0  0  0  0  0  0  0  0  0
   -0.7500   -1.2990    0.0000 C   0  0  0  0  0  0  0  0  0  0  0  0
  1  2  1  0
  2  3  1  0
  3  4  2  0
  3  5  1  0
  5  6  1  0
  6  7  1  0
  7  8  1  0
  8  9  1  0
  9 10  1  0
 10 11  1  0
 11 12  1  0
 12 13  2  0
 12 14  1  0
 14 15  1  0
 15 16  1  0
 16 17  1  0
 17 18  1  0
 18 19  1  0
 19 20  1  0
 20 21  1  0
 21 22  1  0
 22 23  1  0
 23 24  1  0
 24 25  1  0
 25 26  1  0
 26 27  1  0
 27 28  1  0
 28 29  1  0
 29 30  2  0
 30 31  1  0
 31 32  2  0
 32 33  1  0
 33 34  2  0
 34 35  1  0
 35 36  1  0
 34 37  1  0
 37 38  2  0
 38 39  1  0
 39 40  2  0
 33 41  1  0
 41 42  2  0
 42 43  1  0
 43 44  2  0
 44 45  1  0
 19 46  1  0
 46 47  1  0
 44 10  1  0
 16 14  1  0
 39 28  1  0
 45 41  1  0
 47 16  1  0
 38 31  1  0
M  END
>  <molecule_chembl_id>  (1288) 
CHEMBL4878197

>  <canonical_smiles>  (1288) 
CCC(=O)CCCCCC1NC(=O)C2CC23CCN(CCCCCCCCn2ccc4cc(c(OC)cc4c2=O)-c2cnc1[nH]2)CC3

>  <pchembl_value_mean>  (1288) 
9.51

>  <document_chembl_id>  (1288) 
CHEMBL4811291

$$$$
